 ****** HSPICE -- Q-2020.03-SP2-2 linux64 (Nov  1 2020) ******                  
  Copyright (c) 1986 - 2025 by Synopsys, Inc. All Rights Reserved.              
  This software and the associated documentation are proprietary
  to Synopsys, Inc. This software may only be used in accordance
  with the terms and conditions of a written license agreement with
  Synopsys, Inc. All other use, reproduction, or distribution of
  this software is strictly prohibited.
  Input File: TESTBED.sp                                                        
  Command line options: /RAID2/cad/synopsys/hspice/2020.03-sp2-2/hspice/linux64/hspice -i TESTBED.sp -o TESTBED
  Start time: Thu Apr 10 14:17:55 2025
 lic:  
 lic: FLEXlm: SDK_12.6 
 lic: USER:   es25MCS042           HOSTNAME: ee28 
 lic: HOSTID: "d85ed3efc199"       PID:      107990 
 lic: Using FLEXlm license file: 
 lic: 26585@lstc 
 lic: Checkout 1 hspice 
 lic: License/Maintenance for hspice will expire on 14-may-2025/2023.12 
 lic: 264(in_use)/600(total) FLOATING license(s) on SERVER 26585@lstc 
 lic:   
  **warning** Warning(s) associated with encrypted block(s) were suppressed due to encrypted content.

  **warning** Warning(s) associated with encrypted block(s) were suppressed due to encrypted content.

1****** HSPICE -- Q-2020.03-SP2-2 linux64 (Nov  1 2020) ******                  
 ******  
 .title ex2 testbed_for_decoder_6to64

 ****** circuit name directory
 circuit number to circuit name directory
   number circuitname                     definition         multiplier
        0 main circuit
        2 x_decoder.                      decoder_6to64      1.00 
  
      
 **info** set option symb=1 internally to help for convergence.
 *****************************************************************
 ******  option summary
 ******
 runlvl  = 3         bypass  = 2.0000    
  Opening plot unit= 15
 file=TESTBED.pa0

 ******  
 .title ex2 testbed_for_decoder_6to64

 ****** operating point information tnom=  25.000 temp=  25.000 ******
 ****** operating point status is voltage   simulation time is     0.     
      node    =voltage        node    =voltage        node    =voltage

 +  0:clk     =   0.        0:patn[0] =   0.        0:patn[1] =   0.     
 +  0:patn[2] =   0.        0:patn[3] =   0.        0:patn[4] =   0.     
 +  0:patn[5] =   0.        0:vdd     = 700.0000m   0:wl[0]   =  22.5345u
 +  0:wl[10]  =   3.4571u   0:wl[11]  =   3.4569u   0:wl[12]  =   3.4571u
 +  0:wl[13]  =   3.4569u   0:wl[14]  =   3.4569u   0:wl[15]  =   3.4568u
 +  0:wl[16]  =   3.4589u   0:wl[17]  =   3.4571u   0:wl[18]  =   3.4571u
 +  0:wl[19]  =   3.4569u   0:wl[1]   =  23.5139u   0:wl[20]  =   3.4571u
 +  0:wl[21]  =   3.4569u   0:wl[22]  =   3.4569u   0:wl[23]  =   3.4568u
 +  0:wl[24]  =   3.4581u   0:wl[25]  =   3.4564u   0:wl[26]  =   3.4564u
 +  0:wl[27]  =   3.4561u   0:wl[28]  =   3.4564u   0:wl[29]  =   3.4561u
 +  0:wl[2]   =  23.5139u   0:wl[30]  =   3.4561u   0:wl[31]  =   3.4560u
 +  0:wl[32]  =   3.4589u   0:wl[33]  =   3.4571u   0:wl[34]  =   3.4571u
 +  0:wl[35]  =   3.4569u   0:wl[36]  =   3.4571u   0:wl[37]  =   3.4569u
 +  0:wl[38]  =   3.4569u   0:wl[39]  =   3.4568u   0:wl[3]   =  23.5116u
 +  0:wl[40]  =   3.4581u   0:wl[41]  =   3.4564u   0:wl[42]  =   3.4564u
 +  0:wl[43]  =   3.4561u   0:wl[44]  =   3.4564u   0:wl[45]  =   3.4561u
 +  0:wl[46]  =   3.4561u   0:wl[47]  =   3.4560u   0:wl[48]  =   3.4581u
 +  0:wl[49]  =   3.4564u   0:wl[4]   =  23.5139u   0:wl[50]  =   3.4564u
 +  0:wl[51]  =   3.4561u   0:wl[52]  =   3.4564u   0:wl[53]  =   3.4561u
 +  0:wl[54]  =   3.4561u   0:wl[55]  =   3.4560u   0:wl[56]  =   3.4580u
 +  0:wl[57]  =   3.4563u   0:wl[58]  =   3.4563u   0:wl[59]  =   3.4560u
 +  0:wl[5]   =  23.5116u   0:wl[60]  =   3.4563u   0:wl[61]  =   3.4560u
 +  0:wl[62]  =   3.4560u   0:wl[63]  =   3.4559u   0:wl[6]   =  23.5116u
 +  0:wl[7]   =  23.5109u   0:wl[8]   =   3.4589u   0:wl[9]   =   3.4571u
 +  0:x[0]    = 117.8242n   0:x[1]    = 117.8242n   0:x[2]    = 117.8242n
 +  0:x[3]    = 117.8242n   0:x[4]    = 117.8242n   0:x[5]    = 117.8242n
 +  2:n24     = 699.9841m   2:n25     = 699.9841m   2:n26     = 699.9841m
 +  2:n27     = 699.9841m   2:n28     = 699.9841m   2:n29     = 699.9841m
 +  2:n30     = 699.9841m   2:n31     = 699.9841m   2:n32     = 699.9841m
 +  2:n33     = 699.9841m   2:n34     = 699.9841m   2:n35     = 699.9841m
 +  2:n36     = 699.9841m   2:n37     = 699.9841m   2:n38     = 699.9841m
 +  2:n39     = 699.9841m   2:n40     = 699.9841m   2:n41     = 699.9841m
 +  2:n42     = 699.9990m   2:n43     = 699.9982m   2:n44     = 699.9957m
 +  2:n45     = 699.9982m   2:n46     = 699.9841m   2:n47     = 699.9769m
 +  2:n48     = 699.9841m   2:n49     = 699.9841m   2:n50     =  22.5443u
 +  2:n51     = 699.9957m   2:n52     = 699.9762m   2:n53     = 699.9762m
 +  2:n54     = 699.9982m   2:n55     = 699.9957m   2:n56     = 699.9762m
 +  2:n57     = 699.9957m   2:n58     = 699.9982m   2:n59     = 699.9957m
 +  2:n60     = 699.9957m   2:n61     =  70.6919u

 ******
 .title ex2 testbed_for_decoder_6to64

 ****** transient analysis tnom=  25.000 temp=  25.000 ******

          ***** job concluded
 ******  
 .title ex2 testbed_for_decoder_6to64

 ****** job statistics summary tnom=  25.000 temp=  25.000 ******
  
 ******  Machine Information  ******
 CPU:
 model name	: AMD EPYC 7713 64-Core Processor
 cpu MHz	: 1500.000
  
 OS:
 Linux version 3.10.0-1160.88.1.el7.x86_64 (mockbuild@kbuilder.bsys.centos.org) (gcc version 4.8.5 20150623 (Red Hat 4.8.5-44) (GCC) ) #1 SMP Tue Mar 7 15:41:52 UTC 2023


  ******  HSPICE Threads Information  ******

  Command Line Threads Count :     1
  Available CPU Count        :   256
  Actual Threads Count       :     1


  ******  Circuit Statistics  ******
  # nodes       =     224 # elements   =     502
  # resistors   =       0 # capacitors =      64 # inductors   =       0
  # mutual_inds =       0 # vccs       =       0 # vcvs        =       0
  # cccs        =       0 # ccvs       =       0 # volt_srcs   =       2
  # curr_srcs   =       0 # diodes     =       0 # bjts        =       0
  # jfets       =       0 # mosfets    =     430 # U elements  =       0
  # T elements  =       0 # W elements =       0 # B elements  =       0
  # S elements  =       0 # P elements =       0 # va device   =       0
  # vector_srcs =       6 # N elements =       0


  ******  Runtime Statistics (seconds)  ******

  analysis           time    # points   tot. iter  conv.iter
  op point           0.06           1          18
  transient         11.07       60001       24188        7843 rev=      1466
  readin             0.05
  errchk             0.02
  setup              0.01
  output             0.00


           peak memory used        401.58 megabytes
           total cpu time           11.23 seconds
           total elapsed time       71.55 seconds
           job started at     14:17:55 04/10/2025
           job ended   at     14:19:07 04/10/2025
           job total runtime        71.55 seconds


 lic: Release hspice token(s) 
 lic: total license checkout elapse time:       60.31(s)
