 ****** HSPICE -- Q-2020.03-SP2-2 linux64 (Nov  1 2020) ******                  
  Copyright (c) 1986 - 2025 by Synopsys, Inc. All Rights Reserved.              
  This software and the associated documentation are proprietary
  to Synopsys, Inc. This software may only be used in accordance
  with the terms and conditions of a written license agreement with
  Synopsys, Inc. All other use, reproduction, or distribution of
  this software is strictly prohibited.
  Input File: spice/testbed.sp                                                  
  Command line options: /RAID2/cad/synopsys/hspice/2020.03-sp2-2/hspice/linux64/hspice -i spice/testbed.sp -o sim/
  Start time: Sun Apr 20 15:33:19 2025
 lic:  
 lic: FLEXlm: SDK_12.6 
 lic: USER:   es25MCS042           HOSTNAME: ee28 
 lic: HOSTID: "d85ed3efc199"       PID:      58932 
 lic: Using FLEXlm license file: 
 lic: 26585@lshc 
 lic: Checkout 1 hspice 
 lic: License/Maintenance for hspice will expire on 14-may-2025/2024.09 
 lic: 47(in_use)/1100(total) FLOATING license(s) on SERVER 26585@lshc 
 lic:   
  **warning** (/RAID2/COURSE/2025_Spring/es25MCS/es25MCS042/tech_file/ASAP7_PDKandLIB_v1p5/asap7libs_24/cdl/pex/asap7sc7p5t_24_SIMPLE_SRAM.sp:8696) Global net name "vdd" in subckt pin list. The pin will be connected to the local net. Recommend to not use global net names in subckt pin lists.
1****** HSPICE -- Q-2020.03-SP2-2 linux64 (Nov  1 2020) ******                  
 ******  
 .tile sense amplifier testbed

 ****** circuit name directory
 circuit number to circuit name directory
   number circuitname                     definition         multiplier
        0 main circuit
        1 x_pre.                          pre_charge         1.00 
        2 x_sa_vol.                       sa_vol             1.00 
        3 x_sa_current.                   sa_current_base    1.00 
        4 x_sram_arr0.                    sram_arr128        1.00 
        5 x_buffer_arr0.                  buffer_arr128      1.00 
        6 x_sram_arr0.x_cell0.            sram_6t            1.00 
        7 x_sram_arr0.x_cell1.            sram_6t            1.00 
        8 x_sram_arr0.x_cell2.            sram_6t            1.00 
        9 x_sram_arr0.x_cell3.            sram_6t            1.00 
       10 x_sram_arr0.x_cell4.            sram_6t            1.00 
       11 x_sram_arr0.x_cell5.            sram_6t            1.00 
       12 x_sram_arr0.x_cell6.            sram_6t            1.00 
       13 x_sram_arr0.x_cell7.            sram_6t            1.00 
       14 x_sram_arr0.x_cell8.            sram_6t            1.00 
       15 x_sram_arr0.x_cell9.            sram_6t            1.00 
       16 x_sram_arr0.x_cell10.           sram_6t            1.00 
       17 x_sram_arr0.x_cell11.           sram_6t            1.00 
       18 x_sram_arr0.x_cell12.           sram_6t            1.00 
       19 x_sram_arr0.x_cell13.           sram_6t            1.00 
       20 x_sram_arr0.x_cell14.           sram_6t            1.00 
       21 x_sram_arr0.x_cell15.           sram_6t            1.00 
       22 x_sram_arr0.x_cell16.           sram_6t            1.00 
       23 x_sram_arr0.x_cell17.           sram_6t            1.00 
       24 x_sram_arr0.x_cell18.           sram_6t            1.00 
       25 x_sram_arr0.x_cell19.           sram_6t            1.00 
       26 x_sram_arr0.x_cell20.           sram_6t            1.00 
       27 x_sram_arr0.x_cell21.           sram_6t            1.00 
       28 x_sram_arr0.x_cell22.           sram_6t            1.00 
       29 x_sram_arr0.x_cell23.           sram_6t            1.00 
       30 x_sram_arr0.x_cell24.           sram_6t            1.00 
       31 x_sram_arr0.x_cell25.           sram_6t            1.00 
       32 x_sram_arr0.x_cell26.           sram_6t            1.00 
       33 x_sram_arr0.x_cell27.           sram_6t            1.00 
       34 x_sram_arr0.x_cell28.           sram_6t            1.00 
       35 x_sram_arr0.x_cell29.           sram_6t            1.00 
       36 x_sram_arr0.x_cell30.           sram_6t            1.00 
       37 x_sram_arr0.x_cell31.           sram_6t            1.00 
       38 x_sram_arr0.x_cell32.           sram_6t            1.00 
       39 x_sram_arr0.x_cell33.           sram_6t            1.00 
       40 x_sram_arr0.x_cell34.           sram_6t            1.00 
       41 x_sram_arr0.x_cell35.           sram_6t            1.00 
       42 x_sram_arr0.x_cell36.           sram_6t            1.00 
       43 x_sram_arr0.x_cell37.           sram_6t            1.00 
       44 x_sram_arr0.x_cell38.           sram_6t            1.00 
       45 x_sram_arr0.x_cell39.           sram_6t            1.00 
       46 x_sram_arr0.x_cell40.           sram_6t            1.00 
       47 x_sram_arr0.x_cell41.           sram_6t            1.00 
       48 x_sram_arr0.x_cell42.           sram_6t            1.00 
       49 x_sram_arr0.x_cell43.           sram_6t            1.00 
       50 x_sram_arr0.x_cell44.           sram_6t            1.00 
       51 x_sram_arr0.x_cell45.           sram_6t            1.00 
       52 x_sram_arr0.x_cell46.           sram_6t            1.00 
       53 x_sram_arr0.x_cell47.           sram_6t            1.00 
       54 x_sram_arr0.x_cell48.           sram_6t            1.00 
       55 x_sram_arr0.x_cell49.           sram_6t            1.00 
       56 x_sram_arr0.x_cell50.           sram_6t            1.00 
       57 x_sram_arr0.x_cell51.           sram_6t            1.00 
       58 x_sram_arr0.x_cell52.           sram_6t            1.00 
       59 x_sram_arr0.x_cell53.           sram_6t            1.00 
       60 x_sram_arr0.x_cell54.           sram_6t            1.00 
       61 x_sram_arr0.x_cell55.           sram_6t            1.00 
       62 x_sram_arr0.x_cell56.           sram_6t            1.00 
       63 x_sram_arr0.x_cell57.           sram_6t            1.00 
       64 x_sram_arr0.x_cell58.           sram_6t            1.00 
       65 x_sram_arr0.x_cell59.           sram_6t            1.00 
       66 x_sram_arr0.x_cell60.           sram_6t            1.00 
       67 x_sram_arr0.x_cell61.           sram_6t            1.00 
       68 x_sram_arr0.x_cell62.           sram_6t            1.00 
       69 x_sram_arr0.x_cell63.           sram_6t            1.00 
       70 x_sram_arr0.x_cell64.           sram_6t            1.00 
       71 x_sram_arr0.x_cell65.           sram_6t            1.00 
       72 x_sram_arr0.x_cell66.           sram_6t            1.00 
       73 x_sram_arr0.x_cell67.           sram_6t            1.00 
       74 x_sram_arr0.x_cell68.           sram_6t            1.00 
       75 x_sram_arr0.x_cell69.           sram_6t            1.00 
       76 x_sram_arr0.x_cell70.           sram_6t            1.00 
       77 x_sram_arr0.x_cell71.           sram_6t            1.00 
       78 x_sram_arr0.x_cell72.           sram_6t            1.00 
       79 x_sram_arr0.x_cell73.           sram_6t            1.00 
       80 x_sram_arr0.x_cell74.           sram_6t            1.00 
       81 x_sram_arr0.x_cell75.           sram_6t            1.00 
       82 x_sram_arr0.x_cell76.           sram_6t            1.00 
       83 x_sram_arr0.x_cell77.           sram_6t            1.00 
       84 x_sram_arr0.x_cell78.           sram_6t            1.00 
       85 x_sram_arr0.x_cell79.           sram_6t            1.00 
       86 x_sram_arr0.x_cell80.           sram_6t            1.00 
       87 x_sram_arr0.x_cell81.           sram_6t            1.00 
       88 x_sram_arr0.x_cell82.           sram_6t            1.00 
       89 x_sram_arr0.x_cell83.           sram_6t            1.00 
       90 x_sram_arr0.x_cell84.           sram_6t            1.00 
       91 x_sram_arr0.x_cell85.           sram_6t            1.00 
       92 x_sram_arr0.x_cell86.           sram_6t            1.00 
       93 x_sram_arr0.x_cell87.           sram_6t            1.00 
       94 x_sram_arr0.x_cell88.           sram_6t            1.00 
       95 x_sram_arr0.x_cell89.           sram_6t            1.00 
       96 x_sram_arr0.x_cell90.           sram_6t            1.00 
       97 x_sram_arr0.x_cell91.           sram_6t            1.00 
       98 x_sram_arr0.x_cell92.           sram_6t            1.00 
       99 x_sram_arr0.x_cell93.           sram_6t            1.00 
      100 x_sram_arr0.x_cell94.           sram_6t            1.00 
      101 x_sram_arr0.x_cell95.           sram_6t            1.00 
      102 x_sram_arr0.x_cell96.           sram_6t            1.00 
      103 x_sram_arr0.x_cell97.           sram_6t            1.00 
      104 x_sram_arr0.x_cell98.           sram_6t            1.00 
      105 x_sram_arr0.x_cell99.           sram_6t            1.00 
      106 x_sram_arr0.x_cell100.          sram_6t            1.00 
      107 x_sram_arr0.x_cell101.          sram_6t            1.00 
      108 x_sram_arr0.x_cell102.          sram_6t            1.00 
      109 x_sram_arr0.x_cell103.          sram_6t            1.00 
      110 x_sram_arr0.x_cell104.          sram_6t            1.00 
      111 x_sram_arr0.x_cell105.          sram_6t            1.00 
      112 x_sram_arr0.x_cell106.          sram_6t            1.00 
      113 x_sram_arr0.x_cell107.          sram_6t            1.00 
      114 x_sram_arr0.x_cell108.          sram_6t            1.00 
      115 x_sram_arr0.x_cell109.          sram_6t            1.00 
      116 x_sram_arr0.x_cell110.          sram_6t            1.00 
      117 x_sram_arr0.x_cell111.          sram_6t            1.00 
      118 x_sram_arr0.x_cell112.          sram_6t            1.00 
      119 x_sram_arr0.x_cell113.          sram_6t            1.00 
      120 x_sram_arr0.x_cell114.          sram_6t            1.00 
      121 x_sram_arr0.x_cell115.          sram_6t            1.00 
      122 x_sram_arr0.x_cell116.          sram_6t            1.00 
      123 x_sram_arr0.x_cell117.          sram_6t            1.00 
      124 x_sram_arr0.x_cell118.          sram_6t            1.00 
      125 x_sram_arr0.x_cell119.          sram_6t            1.00 
      126 x_sram_arr0.x_cell120.          sram_6t            1.00 
      127 x_sram_arr0.x_cell121.          sram_6t            1.00 
      128 x_sram_arr0.x_cell122.          sram_6t            1.00 
      129 x_sram_arr0.x_cell123.          sram_6t            1.00 
      130 x_sram_arr0.x_cell124.          sram_6t            1.00 
      131 x_sram_arr0.x_cell125.          sram_6t            1.00 
      132 x_sram_arr0.x_cell126.          sram_6t            1.00 
      133 x_sram_arr0.x_cell127.          sram_6t            1.00 
      134 x_buffer_arr0.x_buf0.           buffer             1.00 
      135 x_buffer_arr0.x_and0.           and2x2_asap7_75t_sram
                                                                 1.00 
      136 x_buffer_arr0.x_buf1.           buffer             1.00 
      137 x_buffer_arr0.x_and1.           and2x2_asap7_75t_sram
                                                                 1.00 
      138 x_buffer_arr0.x_buf2.           buffer             1.00 
      139 x_buffer_arr0.x_and2.           and2x2_asap7_75t_sram
                                                                 1.00 
      140 x_buffer_arr0.x_buf3.           buffer             1.00 
      141 x_buffer_arr0.x_and3.           and2x2_asap7_75t_sram
                                                                 1.00 
      142 x_buffer_arr0.x_buf4.           buffer             1.00 
      143 x_buffer_arr0.x_and4.           and2x2_asap7_75t_sram
                                                                 1.00 
      144 x_buffer_arr0.x_buf5.           buffer             1.00 
      145 x_buffer_arr0.x_and5.           and2x2_asap7_75t_sram
                                                                 1.00 
      146 x_buffer_arr0.x_buf6.           buffer             1.00 
      147 x_buffer_arr0.x_and6.           and2x2_asap7_75t_sram
                                                                 1.00 
      148 x_buffer_arr0.x_buf7.           buffer             1.00 
      149 x_buffer_arr0.x_and7.           and2x2_asap7_75t_sram
                                                                 1.00 
      150 x_buffer_arr0.x_buf8.           buffer             1.00 
      151 x_buffer_arr0.x_and8.           and2x2_asap7_75t_sram
                                                                 1.00 
      152 x_buffer_arr0.x_buf9.           buffer             1.00 
      153 x_buffer_arr0.x_and9.           and2x2_asap7_75t_sram
                                                                 1.00 
      154 x_buffer_arr0.x_buf10.          buffer             1.00 
      155 x_buffer_arr0.x_and10.          and2x2_asap7_75t_sram
                                                                 1.00 
      156 x_buffer_arr0.x_buf11.          buffer             1.00 
      157 x_buffer_arr0.x_and11.          and2x2_asap7_75t_sram
                                                                 1.00 
      158 x_buffer_arr0.x_buf12.          buffer             1.00 
      159 x_buffer_arr0.x_and12.          and2x2_asap7_75t_sram
                                                                 1.00 
      160 x_buffer_arr0.x_buf13.          buffer             1.00 
      161 x_buffer_arr0.x_and13.          and2x2_asap7_75t_sram
                                                                 1.00 
      162 x_buffer_arr0.x_buf14.          buffer             1.00 
      163 x_buffer_arr0.x_and14.          and2x2_asap7_75t_sram
                                                                 1.00 
      164 x_buffer_arr0.x_buf15.          buffer             1.00 
      165 x_buffer_arr0.x_and15.          and2x2_asap7_75t_sram
                                                                 1.00 
      166 x_buffer_arr0.x_buf16.          buffer             1.00 
      167 x_buffer_arr0.x_and16.          and2x2_asap7_75t_sram
                                                                 1.00 
      168 x_buffer_arr0.x_buf17.          buffer             1.00 
      169 x_buffer_arr0.x_and17.          and2x2_asap7_75t_sram
                                                                 1.00 
      170 x_buffer_arr0.x_buf18.          buffer             1.00 
      171 x_buffer_arr0.x_and18.          and2x2_asap7_75t_sram
                                                                 1.00 
      172 x_buffer_arr0.x_buf19.          buffer             1.00 
      173 x_buffer_arr0.x_and19.          and2x2_asap7_75t_sram
                                                                 1.00 
      174 x_buffer_arr0.x_buf20.          buffer             1.00 
      175 x_buffer_arr0.x_and20.          and2x2_asap7_75t_sram
                                                                 1.00 
      176 x_buffer_arr0.x_buf21.          buffer             1.00 
      177 x_buffer_arr0.x_and21.          and2x2_asap7_75t_sram
                                                                 1.00 
      178 x_buffer_arr0.x_buf22.          buffer             1.00 
      179 x_buffer_arr0.x_and22.          and2x2_asap7_75t_sram
                                                                 1.00 
      180 x_buffer_arr0.x_buf23.          buffer             1.00 
      181 x_buffer_arr0.x_and23.          and2x2_asap7_75t_sram
                                                                 1.00 
      182 x_buffer_arr0.x_buf24.          buffer             1.00 
      183 x_buffer_arr0.x_and24.          and2x2_asap7_75t_sram
                                                                 1.00 
      184 x_buffer_arr0.x_buf25.          buffer             1.00 
      185 x_buffer_arr0.x_and25.          and2x2_asap7_75t_sram
                                                                 1.00 
      186 x_buffer_arr0.x_buf26.          buffer             1.00 
      187 x_buffer_arr0.x_and26.          and2x2_asap7_75t_sram
                                                                 1.00 
      188 x_buffer_arr0.x_buf27.          buffer             1.00 
      189 x_buffer_arr0.x_and27.          and2x2_asap7_75t_sram
                                                                 1.00 
      190 x_buffer_arr0.x_buf28.          buffer             1.00 
      191 x_buffer_arr0.x_and28.          and2x2_asap7_75t_sram
                                                                 1.00 
      192 x_buffer_arr0.x_buf29.          buffer             1.00 
      193 x_buffer_arr0.x_and29.          and2x2_asap7_75t_sram
                                                                 1.00 
      194 x_buffer_arr0.x_buf30.          buffer             1.00 
      195 x_buffer_arr0.x_and30.          and2x2_asap7_75t_sram
                                                                 1.00 
      196 x_buffer_arr0.x_buf31.          buffer             1.00 
      197 x_buffer_arr0.x_and31.          and2x2_asap7_75t_sram
                                                                 1.00 
      198 x_buffer_arr0.x_buf32.          buffer             1.00 
      199 x_buffer_arr0.x_and32.          and2x2_asap7_75t_sram
                                                                 1.00 
      200 x_buffer_arr0.x_buf33.          buffer             1.00 
      201 x_buffer_arr0.x_and33.          and2x2_asap7_75t_sram
                                                                 1.00 
      202 x_buffer_arr0.x_buf34.          buffer             1.00 
      203 x_buffer_arr0.x_and34.          and2x2_asap7_75t_sram
                                                                 1.00 
      204 x_buffer_arr0.x_buf35.          buffer             1.00 
      205 x_buffer_arr0.x_and35.          and2x2_asap7_75t_sram
                                                                 1.00 
      206 x_buffer_arr0.x_buf36.          buffer             1.00 
      207 x_buffer_arr0.x_and36.          and2x2_asap7_75t_sram
                                                                 1.00 
      208 x_buffer_arr0.x_buf37.          buffer             1.00 
      209 x_buffer_arr0.x_and37.          and2x2_asap7_75t_sram
                                                                 1.00 
      210 x_buffer_arr0.x_buf38.          buffer             1.00 
      211 x_buffer_arr0.x_and38.          and2x2_asap7_75t_sram
                                                                 1.00 
      212 x_buffer_arr0.x_buf39.          buffer             1.00 
      213 x_buffer_arr0.x_and39.          and2x2_asap7_75t_sram
                                                                 1.00 
      214 x_buffer_arr0.x_buf40.          buffer             1.00 
      215 x_buffer_arr0.x_and40.          and2x2_asap7_75t_sram
                                                                 1.00 
      216 x_buffer_arr0.x_buf41.          buffer             1.00 
      217 x_buffer_arr0.x_and41.          and2x2_asap7_75t_sram
                                                                 1.00 
      218 x_buffer_arr0.x_buf42.          buffer             1.00 
      219 x_buffer_arr0.x_and42.          and2x2_asap7_75t_sram
                                                                 1.00 
      220 x_buffer_arr0.x_buf43.          buffer             1.00 
      221 x_buffer_arr0.x_and43.          and2x2_asap7_75t_sram
                                                                 1.00 
      222 x_buffer_arr0.x_buf44.          buffer             1.00 
      223 x_buffer_arr0.x_and44.          and2x2_asap7_75t_sram
                                                                 1.00 
      224 x_buffer_arr0.x_buf45.          buffer             1.00 
      225 x_buffer_arr0.x_and45.          and2x2_asap7_75t_sram
                                                                 1.00 
      226 x_buffer_arr0.x_buf46.          buffer             1.00 
      227 x_buffer_arr0.x_and46.          and2x2_asap7_75t_sram
                                                                 1.00 
      228 x_buffer_arr0.x_buf47.          buffer             1.00 
      229 x_buffer_arr0.x_and47.          and2x2_asap7_75t_sram
                                                                 1.00 
      230 x_buffer_arr0.x_buf48.          buffer             1.00 
      231 x_buffer_arr0.x_and48.          and2x2_asap7_75t_sram
                                                                 1.00 
      232 x_buffer_arr0.x_buf49.          buffer             1.00 
      233 x_buffer_arr0.x_and49.          and2x2_asap7_75t_sram
                                                                 1.00 
      234 x_buffer_arr0.x_buf50.          buffer             1.00 
      235 x_buffer_arr0.x_and50.          and2x2_asap7_75t_sram
                                                                 1.00 
      236 x_buffer_arr0.x_buf51.          buffer             1.00 
      237 x_buffer_arr0.x_and51.          and2x2_asap7_75t_sram
                                                                 1.00 
      238 x_buffer_arr0.x_buf52.          buffer             1.00 
      239 x_buffer_arr0.x_and52.          and2x2_asap7_75t_sram
                                                                 1.00 
      240 x_buffer_arr0.x_buf53.          buffer             1.00 
      241 x_buffer_arr0.x_and53.          and2x2_asap7_75t_sram
                                                                 1.00 
      242 x_buffer_arr0.x_buf54.          buffer             1.00 
      243 x_buffer_arr0.x_and54.          and2x2_asap7_75t_sram
                                                                 1.00 
      244 x_buffer_arr0.x_buf55.          buffer             1.00 
      245 x_buffer_arr0.x_and55.          and2x2_asap7_75t_sram
                                                                 1.00 
      246 x_buffer_arr0.x_buf56.          buffer             1.00 
      247 x_buffer_arr0.x_and56.          and2x2_asap7_75t_sram
                                                                 1.00 
      248 x_buffer_arr0.x_buf57.          buffer             1.00 
      249 x_buffer_arr0.x_and57.          and2x2_asap7_75t_sram
                                                                 1.00 
      250 x_buffer_arr0.x_buf58.          buffer             1.00 
      251 x_buffer_arr0.x_and58.          and2x2_asap7_75t_sram
                                                                 1.00 
      252 x_buffer_arr0.x_buf59.          buffer             1.00 
      253 x_buffer_arr0.x_and59.          and2x2_asap7_75t_sram
                                                                 1.00 
      254 x_buffer_arr0.x_buf60.          buffer             1.00 
      255 x_buffer_arr0.x_and60.          and2x2_asap7_75t_sram
                                                                 1.00 
      256 x_buffer_arr0.x_buf61.          buffer             1.00 
      257 x_buffer_arr0.x_and61.          and2x2_asap7_75t_sram
                                                                 1.00 
      258 x_buffer_arr0.x_buf62.          buffer             1.00 
      259 x_buffer_arr0.x_and62.          and2x2_asap7_75t_sram
                                                                 1.00 
      260 x_buffer_arr0.x_buf63.          buffer             1.00 
      261 x_buffer_arr0.x_and63.          and2x2_asap7_75t_sram
                                                                 1.00 
      262 x_buffer_arr0.x_buf64.          buffer             1.00 
      263 x_buffer_arr0.x_and64.          and2x2_asap7_75t_sram
                                                                 1.00 
      264 x_buffer_arr0.x_buf65.          buffer             1.00 
      265 x_buffer_arr0.x_and65.          and2x2_asap7_75t_sram
                                                                 1.00 
      266 x_buffer_arr0.x_buf66.          buffer             1.00 
      267 x_buffer_arr0.x_and66.          and2x2_asap7_75t_sram
                                                                 1.00 
      268 x_buffer_arr0.x_buf67.          buffer             1.00 
      269 x_buffer_arr0.x_and67.          and2x2_asap7_75t_sram
                                                                 1.00 
      270 x_buffer_arr0.x_buf68.          buffer             1.00 
      271 x_buffer_arr0.x_and68.          and2x2_asap7_75t_sram
                                                                 1.00 
      272 x_buffer_arr0.x_buf69.          buffer             1.00 
      273 x_buffer_arr0.x_and69.          and2x2_asap7_75t_sram
                                                                 1.00 
      274 x_buffer_arr0.x_buf70.          buffer             1.00 
      275 x_buffer_arr0.x_and70.          and2x2_asap7_75t_sram
                                                                 1.00 
      276 x_buffer_arr0.x_buf71.          buffer             1.00 
      277 x_buffer_arr0.x_and71.          and2x2_asap7_75t_sram
                                                                 1.00 
      278 x_buffer_arr0.x_buf72.          buffer             1.00 
      279 x_buffer_arr0.x_and72.          and2x2_asap7_75t_sram
                                                                 1.00 
      280 x_buffer_arr0.x_buf73.          buffer             1.00 
      281 x_buffer_arr0.x_and73.          and2x2_asap7_75t_sram
                                                                 1.00 
      282 x_buffer_arr0.x_buf74.          buffer             1.00 
      283 x_buffer_arr0.x_and74.          and2x2_asap7_75t_sram
                                                                 1.00 
      284 x_buffer_arr0.x_buf75.          buffer             1.00 
      285 x_buffer_arr0.x_and75.          and2x2_asap7_75t_sram
                                                                 1.00 
      286 x_buffer_arr0.x_buf76.          buffer             1.00 
      287 x_buffer_arr0.x_and76.          and2x2_asap7_75t_sram
                                                                 1.00 
      288 x_buffer_arr0.x_buf77.          buffer             1.00 
      289 x_buffer_arr0.x_and77.          and2x2_asap7_75t_sram
                                                                 1.00 
      290 x_buffer_arr0.x_buf78.          buffer             1.00 
      291 x_buffer_arr0.x_and78.          and2x2_asap7_75t_sram
                                                                 1.00 
      292 x_buffer_arr0.x_buf79.          buffer             1.00 
      293 x_buffer_arr0.x_and79.          and2x2_asap7_75t_sram
                                                                 1.00 
      294 x_buffer_arr0.x_buf80.          buffer             1.00 
      295 x_buffer_arr0.x_and80.          and2x2_asap7_75t_sram
                                                                 1.00 
      296 x_buffer_arr0.x_buf81.          buffer             1.00 
      297 x_buffer_arr0.x_and81.          and2x2_asap7_75t_sram
                                                                 1.00 
      298 x_buffer_arr0.x_buf82.          buffer             1.00 
      299 x_buffer_arr0.x_and82.          and2x2_asap7_75t_sram
                                                                 1.00 
      300 x_buffer_arr0.x_buf83.          buffer             1.00 
      301 x_buffer_arr0.x_and83.          and2x2_asap7_75t_sram
                                                                 1.00 
      302 x_buffer_arr0.x_buf84.          buffer             1.00 
      303 x_buffer_arr0.x_and84.          and2x2_asap7_75t_sram
                                                                 1.00 
      304 x_buffer_arr0.x_buf85.          buffer             1.00 
      305 x_buffer_arr0.x_and85.          and2x2_asap7_75t_sram
                                                                 1.00 
      306 x_buffer_arr0.x_buf86.          buffer             1.00 
      307 x_buffer_arr0.x_and86.          and2x2_asap7_75t_sram
                                                                 1.00 
      308 x_buffer_arr0.x_buf87.          buffer             1.00 
      309 x_buffer_arr0.x_and87.          and2x2_asap7_75t_sram
                                                                 1.00 
      310 x_buffer_arr0.x_buf88.          buffer             1.00 
      311 x_buffer_arr0.x_and88.          and2x2_asap7_75t_sram
                                                                 1.00 
      312 x_buffer_arr0.x_buf89.          buffer             1.00 
      313 x_buffer_arr0.x_and89.          and2x2_asap7_75t_sram
                                                                 1.00 
      314 x_buffer_arr0.x_buf90.          buffer             1.00 
      315 x_buffer_arr0.x_and90.          and2x2_asap7_75t_sram
                                                                 1.00 
      316 x_buffer_arr0.x_buf91.          buffer             1.00 
      317 x_buffer_arr0.x_and91.          and2x2_asap7_75t_sram
                                                                 1.00 
      318 x_buffer_arr0.x_buf92.          buffer             1.00 
      319 x_buffer_arr0.x_and92.          and2x2_asap7_75t_sram
                                                                 1.00 
      320 x_buffer_arr0.x_buf93.          buffer             1.00 
      321 x_buffer_arr0.x_and93.          and2x2_asap7_75t_sram
                                                                 1.00 
      322 x_buffer_arr0.x_buf94.          buffer             1.00 
      323 x_buffer_arr0.x_and94.          and2x2_asap7_75t_sram
                                                                 1.00 
      324 x_buffer_arr0.x_buf95.          buffer             1.00 
      325 x_buffer_arr0.x_and95.          and2x2_asap7_75t_sram
                                                                 1.00 
      326 x_buffer_arr0.x_buf96.          buffer             1.00 
      327 x_buffer_arr0.x_and96.          and2x2_asap7_75t_sram
                                                                 1.00 
      328 x_buffer_arr0.x_buf97.          buffer             1.00 
      329 x_buffer_arr0.x_and97.          and2x2_asap7_75t_sram
                                                                 1.00 
      330 x_buffer_arr0.x_buf98.          buffer             1.00 
      331 x_buffer_arr0.x_and98.          and2x2_asap7_75t_sram
                                                                 1.00 
      332 x_buffer_arr0.x_buf99.          buffer             1.00 
      333 x_buffer_arr0.x_and99.          and2x2_asap7_75t_sram
                                                                 1.00 
      334 x_buffer_arr0.x_buf100.         buffer             1.00 
      335 x_buffer_arr0.x_and100.         and2x2_asap7_75t_sram
                                                                 1.00 
      336 x_buffer_arr0.x_buf101.         buffer             1.00 
      337 x_buffer_arr0.x_and101.         and2x2_asap7_75t_sram
                                                                 1.00 
      338 x_buffer_arr0.x_buf102.         buffer             1.00 
      339 x_buffer_arr0.x_and102.         and2x2_asap7_75t_sram
                                                                 1.00 
      340 x_buffer_arr0.x_buf103.         buffer             1.00 
      341 x_buffer_arr0.x_and103.         and2x2_asap7_75t_sram
                                                                 1.00 
      342 x_buffer_arr0.x_buf104.         buffer             1.00 
      343 x_buffer_arr0.x_and104.         and2x2_asap7_75t_sram
                                                                 1.00 
      344 x_buffer_arr0.x_buf105.         buffer             1.00 
      345 x_buffer_arr0.x_and105.         and2x2_asap7_75t_sram
                                                                 1.00 
      346 x_buffer_arr0.x_buf106.         buffer             1.00 
      347 x_buffer_arr0.x_and106.         and2x2_asap7_75t_sram
                                                                 1.00 
      348 x_buffer_arr0.x_buf107.         buffer             1.00 
      349 x_buffer_arr0.x_and107.         and2x2_asap7_75t_sram
                                                                 1.00 
      350 x_buffer_arr0.x_buf108.         buffer             1.00 
      351 x_buffer_arr0.x_and108.         and2x2_asap7_75t_sram
                                                                 1.00 
      352 x_buffer_arr0.x_buf109.         buffer             1.00 
      353 x_buffer_arr0.x_and109.         and2x2_asap7_75t_sram
                                                                 1.00 
      354 x_buffer_arr0.x_buf110.         buffer             1.00 
      355 x_buffer_arr0.x_and110.         and2x2_asap7_75t_sram
                                                                 1.00 
      356 x_buffer_arr0.x_buf111.         buffer             1.00 
      357 x_buffer_arr0.x_and111.         and2x2_asap7_75t_sram
                                                                 1.00 
      358 x_buffer_arr0.x_buf112.         buffer             1.00 
      359 x_buffer_arr0.x_and112.         and2x2_asap7_75t_sram
                                                                 1.00 
      360 x_buffer_arr0.x_buf113.         buffer             1.00 
      361 x_buffer_arr0.x_and113.         and2x2_asap7_75t_sram
                                                                 1.00 
      362 x_buffer_arr0.x_buf114.         buffer             1.00 
      363 x_buffer_arr0.x_and114.         and2x2_asap7_75t_sram
                                                                 1.00 
      364 x_buffer_arr0.x_buf115.         buffer             1.00 
      365 x_buffer_arr0.x_and115.         and2x2_asap7_75t_sram
                                                                 1.00 
      366 x_buffer_arr0.x_buf116.         buffer             1.00 
      367 x_buffer_arr0.x_and116.         and2x2_asap7_75t_sram
                                                                 1.00 
      368 x_buffer_arr0.x_buf117.         buffer             1.00 
      369 x_buffer_arr0.x_and117.         and2x2_asap7_75t_sram
                                                                 1.00 
      370 x_buffer_arr0.x_buf118.         buffer             1.00 
      371 x_buffer_arr0.x_and118.         and2x2_asap7_75t_sram
                                                                 1.00 
      372 x_buffer_arr0.x_buf119.         buffer             1.00 
      373 x_buffer_arr0.x_and119.         and2x2_asap7_75t_sram
                                                                 1.00 
      374 x_buffer_arr0.x_buf120.         buffer             1.00 
      375 x_buffer_arr0.x_and120.         and2x2_asap7_75t_sram
                                                                 1.00 
      376 x_buffer_arr0.x_buf121.         buffer             1.00 
      377 x_buffer_arr0.x_and121.         and2x2_asap7_75t_sram
                                                                 1.00 
      378 x_buffer_arr0.x_buf122.         buffer             1.00 
      379 x_buffer_arr0.x_and122.         and2x2_asap7_75t_sram
                                                                 1.00 
      380 x_buffer_arr0.x_buf123.         buffer             1.00 
      381 x_buffer_arr0.x_and123.         and2x2_asap7_75t_sram
                                                                 1.00 
      382 x_buffer_arr0.x_buf124.         buffer             1.00 
      383 x_buffer_arr0.x_and124.         and2x2_asap7_75t_sram
                                                                 1.00 
      384 x_buffer_arr0.x_buf125.         buffer             1.00 
      385 x_buffer_arr0.x_and125.         and2x2_asap7_75t_sram
                                                                 1.00 
      386 x_buffer_arr0.x_buf126.         buffer             1.00 
      387 x_buffer_arr0.x_and126.         and2x2_asap7_75t_sram
                                                                 1.00 
      388 x_buffer_arr0.x_buf127.         buffer             1.00 
      389 x_buffer_arr0.x_and127.         and2x2_asap7_75t_sram
                                                                 1.00 
      390 x_buffer_arr0.x_buf0.x_inv1.    inverter           1.00 
      391 x_buffer_arr0.x_buf0.x_inv2.    inverter           1.00 
      392 x_buffer_arr0.x_and0.x_pm_and2x2_asap7_75t_sram%b.
                                            pm_and2x2_asap7_75t_sram%b
                                                                 1.00 
      393 x_buffer_arr0.x_and0.x_pm_and2x2_asap7_75t_sram%a.
                                            pm_and2x2_asap7_75t_sram%a
                                                                 1.00 
      394 x_buffer_arr0.x_and0.x_pm_and2x2_asap7_75t_sram%5.
                                            pm_and2x2_asap7_75t_sram%5
                                                                 1.00 
      395 x_buffer_arr0.x_and0.x_pm_and2x2_asap7_75t_sram%y.
                                            pm_and2x2_asap7_75t_sram%y
                                                                 1.00 
      396 x_buffer_arr0.x_and0.x_pm_and2x2_asap7_75t_sram%7.
                                            pm_and2x2_asap7_75t_sram%7
                                                                 1.00 
      397 x_buffer_arr0.x_buf1.x_inv1.    inverter           1.00 
      398 x_buffer_arr0.x_buf1.x_inv2.    inverter           1.00 
      399 x_buffer_arr0.x_and1.x_pm_and2x2_asap7_75t_sram%b.
                                            pm_and2x2_asap7_75t_sram%b
                                                                 1.00 
      400 x_buffer_arr0.x_and1.x_pm_and2x2_asap7_75t_sram%a.
                                            pm_and2x2_asap7_75t_sram%a
                                                                 1.00 
      401 x_buffer_arr0.x_and1.x_pm_and2x2_asap7_75t_sram%5.
                                            pm_and2x2_asap7_75t_sram%5
                                                                 1.00 
      402 x_buffer_arr0.x_and1.x_pm_and2x2_asap7_75t_sram%y.
                                            pm_and2x2_asap7_75t_sram%y
                                                                 1.00 
      403 x_buffer_arr0.x_and1.x_pm_and2x2_asap7_75t_sram%7.
                                            pm_and2x2_asap7_75t_sram%7
                                                                 1.00 
      404 x_buffer_arr0.x_buf2.x_inv1.    inverter           1.00 
      405 x_buffer_arr0.x_buf2.x_inv2.    inverter           1.00 
      406 x_buffer_arr0.x_and2.x_pm_and2x2_asap7_75t_sram%b.
                                            pm_and2x2_asap7_75t_sram%b
                                                                 1.00 
      407 x_buffer_arr0.x_and2.x_pm_and2x2_asap7_75t_sram%a.
                                            pm_and2x2_asap7_75t_sram%a
                                                                 1.00 
      408 x_buffer_arr0.x_and2.x_pm_and2x2_asap7_75t_sram%5.
                                            pm_and2x2_asap7_75t_sram%5
                                                                 1.00 
      409 x_buffer_arr0.x_and2.x_pm_and2x2_asap7_75t_sram%y.
                                            pm_and2x2_asap7_75t_sram%y
                                                                 1.00 
      410 x_buffer_arr0.x_and2.x_pm_and2x2_asap7_75t_sram%7.
                                            pm_and2x2_asap7_75t_sram%7
                                                                 1.00 
      411 x_buffer_arr0.x_buf3.x_inv1.    inverter           1.00 
      412 x_buffer_arr0.x_buf3.x_inv2.    inverter           1.00 
      413 x_buffer_arr0.x_and3.x_pm_and2x2_asap7_75t_sram%b.
                                            pm_and2x2_asap7_75t_sram%b
                                                                 1.00 
      414 x_buffer_arr0.x_and3.x_pm_and2x2_asap7_75t_sram%a.
                                            pm_and2x2_asap7_75t_sram%a
                                                                 1.00 
      415 x_buffer_arr0.x_and3.x_pm_and2x2_asap7_75t_sram%5.
                                            pm_and2x2_asap7_75t_sram%5
                                                                 1.00 
      416 x_buffer_arr0.x_and3.x_pm_and2x2_asap7_75t_sram%y.
                                            pm_and2x2_asap7_75t_sram%y
                                                                 1.00 
      417 x_buffer_arr0.x_and3.x_pm_and2x2_asap7_75t_sram%7.
                                            pm_and2x2_asap7_75t_sram%7
                                                                 1.00 
      418 x_buffer_arr0.x_buf4.x_inv1.    inverter           1.00 
      419 x_buffer_arr0.x_buf4.x_inv2.    inverter           1.00 
      420 x_buffer_arr0.x_and4.x_pm_and2x2_asap7_75t_sram%b.
                                            pm_and2x2_asap7_75t_sram%b
                                                                 1.00 
      421 x_buffer_arr0.x_and4.x_pm_and2x2_asap7_75t_sram%a.
                                            pm_and2x2_asap7_75t_sram%a
                                                                 1.00 
      422 x_buffer_arr0.x_and4.x_pm_and2x2_asap7_75t_sram%5.
                                            pm_and2x2_asap7_75t_sram%5
                                                                 1.00 
      423 x_buffer_arr0.x_and4.x_pm_and2x2_asap7_75t_sram%y.
                                            pm_and2x2_asap7_75t_sram%y
                                                                 1.00 
      424 x_buffer_arr0.x_and4.x_pm_and2x2_asap7_75t_sram%7.
                                            pm_and2x2_asap7_75t_sram%7
                                                                 1.00 
      425 x_buffer_arr0.x_buf5.x_inv1.    inverter           1.00 
      426 x_buffer_arr0.x_buf5.x_inv2.    inverter           1.00 
      427 x_buffer_arr0.x_and5.x_pm_and2x2_asap7_75t_sram%b.
                                            pm_and2x2_asap7_75t_sram%b
                                                                 1.00 
      428 x_buffer_arr0.x_and5.x_pm_and2x2_asap7_75t_sram%a.
                                            pm_and2x2_asap7_75t_sram%a
                                                                 1.00 
      429 x_buffer_arr0.x_and5.x_pm_and2x2_asap7_75t_sram%5.
                                            pm_and2x2_asap7_75t_sram%5
                                                                 1.00 
      430 x_buffer_arr0.x_and5.x_pm_and2x2_asap7_75t_sram%y.
                                            pm_and2x2_asap7_75t_sram%y
                                                                 1.00 
      431 x_buffer_arr0.x_and5.x_pm_and2x2_asap7_75t_sram%7.
                                            pm_and2x2_asap7_75t_sram%7
                                                                 1.00 
      432 x_buffer_arr0.x_buf6.x_inv1.    inverter           1.00 
      433 x_buffer_arr0.x_buf6.x_inv2.    inverter           1.00 
      434 x_buffer_arr0.x_and6.x_pm_and2x2_asap7_75t_sram%b.
                                            pm_and2x2_asap7_75t_sram%b
                                                                 1.00 
      435 x_buffer_arr0.x_and6.x_pm_and2x2_asap7_75t_sram%a.
                                            pm_and2x2_asap7_75t_sram%a
                                                                 1.00 
      436 x_buffer_arr0.x_and6.x_pm_and2x2_asap7_75t_sram%5.
                                            pm_and2x2_asap7_75t_sram%5
                                                                 1.00 
      437 x_buffer_arr0.x_and6.x_pm_and2x2_asap7_75t_sram%y.
                                            pm_and2x2_asap7_75t_sram%y
                                                                 1.00 
      438 x_buffer_arr0.x_and6.x_pm_and2x2_asap7_75t_sram%7.
                                            pm_and2x2_asap7_75t_sram%7
                                                                 1.00 
      439 x_buffer_arr0.x_buf7.x_inv1.    inverter           1.00 
      440 x_buffer_arr0.x_buf7.x_inv2.    inverter           1.00 
      441 x_buffer_arr0.x_and7.x_pm_and2x2_asap7_75t_sram%b.
                                            pm_and2x2_asap7_75t_sram%b
                                                                 1.00 
      442 x_buffer_arr0.x_and7.x_pm_and2x2_asap7_75t_sram%a.
                                            pm_and2x2_asap7_75t_sram%a
                                                                 1.00 
      443 x_buffer_arr0.x_and7.x_pm_and2x2_asap7_75t_sram%5.
                                            pm_and2x2_asap7_75t_sram%5
                                                                 1.00 
      444 x_buffer_arr0.x_and7.x_pm_and2x2_asap7_75t_sram%y.
                                            pm_and2x2_asap7_75t_sram%y
                                                                 1.00 
      445 x_buffer_arr0.x_and7.x_pm_and2x2_asap7_75t_sram%7.
                                            pm_and2x2_asap7_75t_sram%7
                                                                 1.00 
      446 x_buffer_arr0.x_buf8.x_inv1.    inverter           1.00 
      447 x_buffer_arr0.x_buf8.x_inv2.    inverter           1.00 
      448 x_buffer_arr0.x_and8.x_pm_and2x2_asap7_75t_sram%b.
                                            pm_and2x2_asap7_75t_sram%b
                                                                 1.00 
      449 x_buffer_arr0.x_and8.x_pm_and2x2_asap7_75t_sram%a.
                                            pm_and2x2_asap7_75t_sram%a
                                                                 1.00 
      450 x_buffer_arr0.x_and8.x_pm_and2x2_asap7_75t_sram%5.
                                            pm_and2x2_asap7_75t_sram%5
                                                                 1.00 
      451 x_buffer_arr0.x_and8.x_pm_and2x2_asap7_75t_sram%y.
                                            pm_and2x2_asap7_75t_sram%y
                                                                 1.00 
      452 x_buffer_arr0.x_and8.x_pm_and2x2_asap7_75t_sram%7.
                                            pm_and2x2_asap7_75t_sram%7
                                                                 1.00 
      453 x_buffer_arr0.x_buf9.x_inv1.    inverter           1.00 
      454 x_buffer_arr0.x_buf9.x_inv2.    inverter           1.00 
      455 x_buffer_arr0.x_and9.x_pm_and2x2_asap7_75t_sram%b.
                                            pm_and2x2_asap7_75t_sram%b
                                                                 1.00 
      456 x_buffer_arr0.x_and9.x_pm_and2x2_asap7_75t_sram%a.
                                            pm_and2x2_asap7_75t_sram%a
                                                                 1.00 
      457 x_buffer_arr0.x_and9.x_pm_and2x2_asap7_75t_sram%5.
                                            pm_and2x2_asap7_75t_sram%5
                                                                 1.00 
      458 x_buffer_arr0.x_and9.x_pm_and2x2_asap7_75t_sram%y.
                                            pm_and2x2_asap7_75t_sram%y
                                                                 1.00 
      459 x_buffer_arr0.x_and9.x_pm_and2x2_asap7_75t_sram%7.
                                            pm_and2x2_asap7_75t_sram%7
                                                                 1.00 
      460 x_buffer_arr0.x_buf10.x_inv1.   inverter           1.00 
      461 x_buffer_arr0.x_buf10.x_inv2.   inverter           1.00 
      462 x_buffer_arr0.x_and10.x_pm_and2x2_asap7_75t_sram%b.
                                            pm_and2x2_asap7_75t_sram%b
                                                                 1.00 
      463 x_buffer_arr0.x_and10.x_pm_and2x2_asap7_75t_sram%a.
                                            pm_and2x2_asap7_75t_sram%a
                                                                 1.00 
      464 x_buffer_arr0.x_and10.x_pm_and2x2_asap7_75t_sram%5.
                                            pm_and2x2_asap7_75t_sram%5
                                                                 1.00 
      465 x_buffer_arr0.x_and10.x_pm_and2x2_asap7_75t_sram%y.
                                            pm_and2x2_asap7_75t_sram%y
                                                                 1.00 
      466 x_buffer_arr0.x_and10.x_pm_and2x2_asap7_75t_sram%7.
                                            pm_and2x2_asap7_75t_sram%7
                                                                 1.00 
      467 x_buffer_arr0.x_buf11.x_inv1.   inverter           1.00 
      468 x_buffer_arr0.x_buf11.x_inv2.   inverter           1.00 
      469 x_buffer_arr0.x_and11.x_pm_and2x2_asap7_75t_sram%b.
                                            pm_and2x2_asap7_75t_sram%b
                                                                 1.00 
      470 x_buffer_arr0.x_and11.x_pm_and2x2_asap7_75t_sram%a.
                                            pm_and2x2_asap7_75t_sram%a
                                                                 1.00 
      471 x_buffer_arr0.x_and11.x_pm_and2x2_asap7_75t_sram%5.
                                            pm_and2x2_asap7_75t_sram%5
                                                                 1.00 
      472 x_buffer_arr0.x_and11.x_pm_and2x2_asap7_75t_sram%y.
                                            pm_and2x2_asap7_75t_sram%y
                                                                 1.00 
      473 x_buffer_arr0.x_and11.x_pm_and2x2_asap7_75t_sram%7.
                                            pm_and2x2_asap7_75t_sram%7
                                                                 1.00 
      474 x_buffer_arr0.x_buf12.x_inv1.   inverter           1.00 
      475 x_buffer_arr0.x_buf12.x_inv2.   inverter           1.00 
      476 x_buffer_arr0.x_and12.x_pm_and2x2_asap7_75t_sram%b.
                                            pm_and2x2_asap7_75t_sram%b
                                                                 1.00 
      477 x_buffer_arr0.x_and12.x_pm_and2x2_asap7_75t_sram%a.
                                            pm_and2x2_asap7_75t_sram%a
                                                                 1.00 
      478 x_buffer_arr0.x_and12.x_pm_and2x2_asap7_75t_sram%5.
                                            pm_and2x2_asap7_75t_sram%5
                                                                 1.00 
      479 x_buffer_arr0.x_and12.x_pm_and2x2_asap7_75t_sram%y.
                                            pm_and2x2_asap7_75t_sram%y
                                                                 1.00 
      480 x_buffer_arr0.x_and12.x_pm_and2x2_asap7_75t_sram%7.
                                            pm_and2x2_asap7_75t_sram%7
                                                                 1.00 
      481 x_buffer_arr0.x_buf13.x_inv1.   inverter           1.00 
      482 x_buffer_arr0.x_buf13.x_inv2.   inverter           1.00 
      483 x_buffer_arr0.x_and13.x_pm_and2x2_asap7_75t_sram%b.
                                            pm_and2x2_asap7_75t_sram%b
                                                                 1.00 
      484 x_buffer_arr0.x_and13.x_pm_and2x2_asap7_75t_sram%a.
                                            pm_and2x2_asap7_75t_sram%a
                                                                 1.00 
      485 x_buffer_arr0.x_and13.x_pm_and2x2_asap7_75t_sram%5.
                                            pm_and2x2_asap7_75t_sram%5
                                                                 1.00 
      486 x_buffer_arr0.x_and13.x_pm_and2x2_asap7_75t_sram%y.
                                            pm_and2x2_asap7_75t_sram%y
                                                                 1.00 
      487 x_buffer_arr0.x_and13.x_pm_and2x2_asap7_75t_sram%7.
                                            pm_and2x2_asap7_75t_sram%7
                                                                 1.00 
      488 x_buffer_arr0.x_buf14.x_inv1.   inverter           1.00 
      489 x_buffer_arr0.x_buf14.x_inv2.   inverter           1.00 
      490 x_buffer_arr0.x_and14.x_pm_and2x2_asap7_75t_sram%b.
                                            pm_and2x2_asap7_75t_sram%b
                                                                 1.00 
      491 x_buffer_arr0.x_and14.x_pm_and2x2_asap7_75t_sram%a.
                                            pm_and2x2_asap7_75t_sram%a
                                                                 1.00 
      492 x_buffer_arr0.x_and14.x_pm_and2x2_asap7_75t_sram%5.
                                            pm_and2x2_asap7_75t_sram%5
                                                                 1.00 
      493 x_buffer_arr0.x_and14.x_pm_and2x2_asap7_75t_sram%y.
                                            pm_and2x2_asap7_75t_sram%y
                                                                 1.00 
      494 x_buffer_arr0.x_and14.x_pm_and2x2_asap7_75t_sram%7.
                                            pm_and2x2_asap7_75t_sram%7
                                                                 1.00 
      495 x_buffer_arr0.x_buf15.x_inv1.   inverter           1.00 
      496 x_buffer_arr0.x_buf15.x_inv2.   inverter           1.00 
      497 x_buffer_arr0.x_and15.x_pm_and2x2_asap7_75t_sram%b.
                                            pm_and2x2_asap7_75t_sram%b
                                                                 1.00 
      498 x_buffer_arr0.x_and15.x_pm_and2x2_asap7_75t_sram%a.
                                            pm_and2x2_asap7_75t_sram%a
                                                                 1.00 
      499 x_buffer_arr0.x_and15.x_pm_and2x2_asap7_75t_sram%5.
                                            pm_and2x2_asap7_75t_sram%5
                                                                 1.00 
      500 x_buffer_arr0.x_and15.x_pm_and2x2_asap7_75t_sram%y.
                                            pm_and2x2_asap7_75t_sram%y
                                                                 1.00 
      501 x_buffer_arr0.x_and15.x_pm_and2x2_asap7_75t_sram%7.
                                            pm_and2x2_asap7_75t_sram%7
                                                                 1.00 
      502 x_buffer_arr0.x_buf16.x_inv1.   inverter           1.00 
      503 x_buffer_arr0.x_buf16.x_inv2.   inverter           1.00 
      504 x_buffer_arr0.x_and16.x_pm_and2x2_asap7_75t_sram%b.
                                            pm_and2x2_asap7_75t_sram%b
                                                                 1.00 
      505 x_buffer_arr0.x_and16.x_pm_and2x2_asap7_75t_sram%a.
                                            pm_and2x2_asap7_75t_sram%a
                                                                 1.00 
      506 x_buffer_arr0.x_and16.x_pm_and2x2_asap7_75t_sram%5.
                                            pm_and2x2_asap7_75t_sram%5
                                                                 1.00 
      507 x_buffer_arr0.x_and16.x_pm_and2x2_asap7_75t_sram%y.
                                            pm_and2x2_asap7_75t_sram%y
                                                                 1.00 
      508 x_buffer_arr0.x_and16.x_pm_and2x2_asap7_75t_sram%7.
                                            pm_and2x2_asap7_75t_sram%7
                                                                 1.00 
      509 x_buffer_arr0.x_buf17.x_inv1.   inverter           1.00 
      510 x_buffer_arr0.x_buf17.x_inv2.   inverter           1.00 
      511 x_buffer_arr0.x_and17.x_pm_and2x2_asap7_75t_sram%b.
                                            pm_and2x2_asap7_75t_sram%b
                                                                 1.00 
      512 x_buffer_arr0.x_and17.x_pm_and2x2_asap7_75t_sram%a.
                                            pm_and2x2_asap7_75t_sram%a
                                                                 1.00 
      513 x_buffer_arr0.x_and17.x_pm_and2x2_asap7_75t_sram%5.
                                            pm_and2x2_asap7_75t_sram%5
                                                                 1.00 
      514 x_buffer_arr0.x_and17.x_pm_and2x2_asap7_75t_sram%y.
                                            pm_and2x2_asap7_75t_sram%y
                                                                 1.00 
      515 x_buffer_arr0.x_and17.x_pm_and2x2_asap7_75t_sram%7.
                                            pm_and2x2_asap7_75t_sram%7
                                                                 1.00 
      516 x_buffer_arr0.x_buf18.x_inv1.   inverter           1.00 
      517 x_buffer_arr0.x_buf18.x_inv2.   inverter           1.00 
      518 x_buffer_arr0.x_and18.x_pm_and2x2_asap7_75t_sram%b.
                                            pm_and2x2_asap7_75t_sram%b
                                                                 1.00 
      519 x_buffer_arr0.x_and18.x_pm_and2x2_asap7_75t_sram%a.
                                            pm_and2x2_asap7_75t_sram%a
                                                                 1.00 
      520 x_buffer_arr0.x_and18.x_pm_and2x2_asap7_75t_sram%5.
                                            pm_and2x2_asap7_75t_sram%5
                                                                 1.00 
      521 x_buffer_arr0.x_and18.x_pm_and2x2_asap7_75t_sram%y.
                                            pm_and2x2_asap7_75t_sram%y
                                                                 1.00 
      522 x_buffer_arr0.x_and18.x_pm_and2x2_asap7_75t_sram%7.
                                            pm_and2x2_asap7_75t_sram%7
                                                                 1.00 
      523 x_buffer_arr0.x_buf19.x_inv1.   inverter           1.00 
      524 x_buffer_arr0.x_buf19.x_inv2.   inverter           1.00 
      525 x_buffer_arr0.x_and19.x_pm_and2x2_asap7_75t_sram%b.
                                            pm_and2x2_asap7_75t_sram%b
                                                                 1.00 
      526 x_buffer_arr0.x_and19.x_pm_and2x2_asap7_75t_sram%a.
                                            pm_and2x2_asap7_75t_sram%a
                                                                 1.00 
      527 x_buffer_arr0.x_and19.x_pm_and2x2_asap7_75t_sram%5.
                                            pm_and2x2_asap7_75t_sram%5
                                                                 1.00 
      528 x_buffer_arr0.x_and19.x_pm_and2x2_asap7_75t_sram%y.
                                            pm_and2x2_asap7_75t_sram%y
                                                                 1.00 
      529 x_buffer_arr0.x_and19.x_pm_and2x2_asap7_75t_sram%7.
                                            pm_and2x2_asap7_75t_sram%7
                                                                 1.00 
      530 x_buffer_arr0.x_buf20.x_inv1.   inverter           1.00 
      531 x_buffer_arr0.x_buf20.x_inv2.   inverter           1.00 
      532 x_buffer_arr0.x_and20.x_pm_and2x2_asap7_75t_sram%b.
                                            pm_and2x2_asap7_75t_sram%b
                                                                 1.00 
      533 x_buffer_arr0.x_and20.x_pm_and2x2_asap7_75t_sram%a.
                                            pm_and2x2_asap7_75t_sram%a
                                                                 1.00 
      534 x_buffer_arr0.x_and20.x_pm_and2x2_asap7_75t_sram%5.
                                            pm_and2x2_asap7_75t_sram%5
                                                                 1.00 
      535 x_buffer_arr0.x_and20.x_pm_and2x2_asap7_75t_sram%y.
                                            pm_and2x2_asap7_75t_sram%y
                                                                 1.00 
      536 x_buffer_arr0.x_and20.x_pm_and2x2_asap7_75t_sram%7.
                                            pm_and2x2_asap7_75t_sram%7
                                                                 1.00 
      537 x_buffer_arr0.x_buf21.x_inv1.   inverter           1.00 
      538 x_buffer_arr0.x_buf21.x_inv2.   inverter           1.00 
      539 x_buffer_arr0.x_and21.x_pm_and2x2_asap7_75t_sram%b.
                                            pm_and2x2_asap7_75t_sram%b
                                                                 1.00 
      540 x_buffer_arr0.x_and21.x_pm_and2x2_asap7_75t_sram%a.
                                            pm_and2x2_asap7_75t_sram%a
                                                                 1.00 
      541 x_buffer_arr0.x_and21.x_pm_and2x2_asap7_75t_sram%5.
                                            pm_and2x2_asap7_75t_sram%5
                                                                 1.00 
      542 x_buffer_arr0.x_and21.x_pm_and2x2_asap7_75t_sram%y.
                                            pm_and2x2_asap7_75t_sram%y
                                                                 1.00 
      543 x_buffer_arr0.x_and21.x_pm_and2x2_asap7_75t_sram%7.
                                            pm_and2x2_asap7_75t_sram%7
                                                                 1.00 
      544 x_buffer_arr0.x_buf22.x_inv1.   inverter           1.00 
      545 x_buffer_arr0.x_buf22.x_inv2.   inverter           1.00 
      546 x_buffer_arr0.x_and22.x_pm_and2x2_asap7_75t_sram%b.
                                            pm_and2x2_asap7_75t_sram%b
                                                                 1.00 
      547 x_buffer_arr0.x_and22.x_pm_and2x2_asap7_75t_sram%a.
                                            pm_and2x2_asap7_75t_sram%a
                                                                 1.00 
      548 x_buffer_arr0.x_and22.x_pm_and2x2_asap7_75t_sram%5.
                                            pm_and2x2_asap7_75t_sram%5
                                                                 1.00 
      549 x_buffer_arr0.x_and22.x_pm_and2x2_asap7_75t_sram%y.
                                            pm_and2x2_asap7_75t_sram%y
                                                                 1.00 
      550 x_buffer_arr0.x_and22.x_pm_and2x2_asap7_75t_sram%7.
                                            pm_and2x2_asap7_75t_sram%7
                                                                 1.00 
      551 x_buffer_arr0.x_buf23.x_inv1.   inverter           1.00 
      552 x_buffer_arr0.x_buf23.x_inv2.   inverter           1.00 
      553 x_buffer_arr0.x_and23.x_pm_and2x2_asap7_75t_sram%b.
                                            pm_and2x2_asap7_75t_sram%b
                                                                 1.00 
      554 x_buffer_arr0.x_and23.x_pm_and2x2_asap7_75t_sram%a.
                                            pm_and2x2_asap7_75t_sram%a
                                                                 1.00 
      555 x_buffer_arr0.x_and23.x_pm_and2x2_asap7_75t_sram%5.
                                            pm_and2x2_asap7_75t_sram%5
                                                                 1.00 
      556 x_buffer_arr0.x_and23.x_pm_and2x2_asap7_75t_sram%y.
                                            pm_and2x2_asap7_75t_sram%y
                                                                 1.00 
      557 x_buffer_arr0.x_and23.x_pm_and2x2_asap7_75t_sram%7.
                                            pm_and2x2_asap7_75t_sram%7
                                                                 1.00 
      558 x_buffer_arr0.x_buf24.x_inv1.   inverter           1.00 
      559 x_buffer_arr0.x_buf24.x_inv2.   inverter           1.00 
      560 x_buffer_arr0.x_and24.x_pm_and2x2_asap7_75t_sram%b.
                                            pm_and2x2_asap7_75t_sram%b
                                                                 1.00 
      561 x_buffer_arr0.x_and24.x_pm_and2x2_asap7_75t_sram%a.
                                            pm_and2x2_asap7_75t_sram%a
                                                                 1.00 
      562 x_buffer_arr0.x_and24.x_pm_and2x2_asap7_75t_sram%5.
                                            pm_and2x2_asap7_75t_sram%5
                                                                 1.00 
      563 x_buffer_arr0.x_and24.x_pm_and2x2_asap7_75t_sram%y.
                                            pm_and2x2_asap7_75t_sram%y
                                                                 1.00 
      564 x_buffer_arr0.x_and24.x_pm_and2x2_asap7_75t_sram%7.
                                            pm_and2x2_asap7_75t_sram%7
                                                                 1.00 
      565 x_buffer_arr0.x_buf25.x_inv1.   inverter           1.00 
      566 x_buffer_arr0.x_buf25.x_inv2.   inverter           1.00 
      567 x_buffer_arr0.x_and25.x_pm_and2x2_asap7_75t_sram%b.
                                            pm_and2x2_asap7_75t_sram%b
                                                                 1.00 
      568 x_buffer_arr0.x_and25.x_pm_and2x2_asap7_75t_sram%a.
                                            pm_and2x2_asap7_75t_sram%a
                                                                 1.00 
      569 x_buffer_arr0.x_and25.x_pm_and2x2_asap7_75t_sram%5.
                                            pm_and2x2_asap7_75t_sram%5
                                                                 1.00 
      570 x_buffer_arr0.x_and25.x_pm_and2x2_asap7_75t_sram%y.
                                            pm_and2x2_asap7_75t_sram%y
                                                                 1.00 
      571 x_buffer_arr0.x_and25.x_pm_and2x2_asap7_75t_sram%7.
                                            pm_and2x2_asap7_75t_sram%7
                                                                 1.00 
      572 x_buffer_arr0.x_buf26.x_inv1.   inverter           1.00 
      573 x_buffer_arr0.x_buf26.x_inv2.   inverter           1.00 
      574 x_buffer_arr0.x_and26.x_pm_and2x2_asap7_75t_sram%b.
                                            pm_and2x2_asap7_75t_sram%b
                                                                 1.00 
      575 x_buffer_arr0.x_and26.x_pm_and2x2_asap7_75t_sram%a.
                                            pm_and2x2_asap7_75t_sram%a
                                                                 1.00 
      576 x_buffer_arr0.x_and26.x_pm_and2x2_asap7_75t_sram%5.
                                            pm_and2x2_asap7_75t_sram%5
                                                                 1.00 
      577 x_buffer_arr0.x_and26.x_pm_and2x2_asap7_75t_sram%y.
                                            pm_and2x2_asap7_75t_sram%y
                                                                 1.00 
      578 x_buffer_arr0.x_and26.x_pm_and2x2_asap7_75t_sram%7.
                                            pm_and2x2_asap7_75t_sram%7
                                                                 1.00 
      579 x_buffer_arr0.x_buf27.x_inv1.   inverter           1.00 
      580 x_buffer_arr0.x_buf27.x_inv2.   inverter           1.00 
      581 x_buffer_arr0.x_and27.x_pm_and2x2_asap7_75t_sram%b.
                                            pm_and2x2_asap7_75t_sram%b
                                                                 1.00 
      582 x_buffer_arr0.x_and27.x_pm_and2x2_asap7_75t_sram%a.
                                            pm_and2x2_asap7_75t_sram%a
                                                                 1.00 
      583 x_buffer_arr0.x_and27.x_pm_and2x2_asap7_75t_sram%5.
                                            pm_and2x2_asap7_75t_sram%5
                                                                 1.00 
      584 x_buffer_arr0.x_and27.x_pm_and2x2_asap7_75t_sram%y.
                                            pm_and2x2_asap7_75t_sram%y
                                                                 1.00 
      585 x_buffer_arr0.x_and27.x_pm_and2x2_asap7_75t_sram%7.
                                            pm_and2x2_asap7_75t_sram%7
                                                                 1.00 
      586 x_buffer_arr0.x_buf28.x_inv1.   inverter           1.00 
      587 x_buffer_arr0.x_buf28.x_inv2.   inverter           1.00 
      588 x_buffer_arr0.x_and28.x_pm_and2x2_asap7_75t_sram%b.
                                            pm_and2x2_asap7_75t_sram%b
                                                                 1.00 
      589 x_buffer_arr0.x_and28.x_pm_and2x2_asap7_75t_sram%a.
                                            pm_and2x2_asap7_75t_sram%a
                                                                 1.00 
      590 x_buffer_arr0.x_and28.x_pm_and2x2_asap7_75t_sram%5.
                                            pm_and2x2_asap7_75t_sram%5
                                                                 1.00 
      591 x_buffer_arr0.x_and28.x_pm_and2x2_asap7_75t_sram%y.
                                            pm_and2x2_asap7_75t_sram%y
                                                                 1.00 
      592 x_buffer_arr0.x_and28.x_pm_and2x2_asap7_75t_sram%7.
                                            pm_and2x2_asap7_75t_sram%7
                                                                 1.00 
      593 x_buffer_arr0.x_buf29.x_inv1.   inverter           1.00 
      594 x_buffer_arr0.x_buf29.x_inv2.   inverter           1.00 
      595 x_buffer_arr0.x_and29.x_pm_and2x2_asap7_75t_sram%b.
                                            pm_and2x2_asap7_75t_sram%b
                                                                 1.00 
      596 x_buffer_arr0.x_and29.x_pm_and2x2_asap7_75t_sram%a.
                                            pm_and2x2_asap7_75t_sram%a
                                                                 1.00 
      597 x_buffer_arr0.x_and29.x_pm_and2x2_asap7_75t_sram%5.
                                            pm_and2x2_asap7_75t_sram%5
                                                                 1.00 
      598 x_buffer_arr0.x_and29.x_pm_and2x2_asap7_75t_sram%y.
                                            pm_and2x2_asap7_75t_sram%y
                                                                 1.00 
      599 x_buffer_arr0.x_and29.x_pm_and2x2_asap7_75t_sram%7.
                                            pm_and2x2_asap7_75t_sram%7
                                                                 1.00 
      600 x_buffer_arr0.x_buf30.x_inv1.   inverter           1.00 
      601 x_buffer_arr0.x_buf30.x_inv2.   inverter           1.00 
      602 x_buffer_arr0.x_and30.x_pm_and2x2_asap7_75t_sram%b.
                                            pm_and2x2_asap7_75t_sram%b
                                                                 1.00 
      603 x_buffer_arr0.x_and30.x_pm_and2x2_asap7_75t_sram%a.
                                            pm_and2x2_asap7_75t_sram%a
                                                                 1.00 
      604 x_buffer_arr0.x_and30.x_pm_and2x2_asap7_75t_sram%5.
                                            pm_and2x2_asap7_75t_sram%5
                                                                 1.00 
      605 x_buffer_arr0.x_and30.x_pm_and2x2_asap7_75t_sram%y.
                                            pm_and2x2_asap7_75t_sram%y
                                                                 1.00 
      606 x_buffer_arr0.x_and30.x_pm_and2x2_asap7_75t_sram%7.
                                            pm_and2x2_asap7_75t_sram%7
                                                                 1.00 
      607 x_buffer_arr0.x_buf31.x_inv1.   inverter           1.00 
      608 x_buffer_arr0.x_buf31.x_inv2.   inverter           1.00 
      609 x_buffer_arr0.x_and31.x_pm_and2x2_asap7_75t_sram%b.
                                            pm_and2x2_asap7_75t_sram%b
                                                                 1.00 
      610 x_buffer_arr0.x_and31.x_pm_and2x2_asap7_75t_sram%a.
                                            pm_and2x2_asap7_75t_sram%a
                                                                 1.00 
      611 x_buffer_arr0.x_and31.x_pm_and2x2_asap7_75t_sram%5.
                                            pm_and2x2_asap7_75t_sram%5
                                                                 1.00 
      612 x_buffer_arr0.x_and31.x_pm_and2x2_asap7_75t_sram%y.
                                            pm_and2x2_asap7_75t_sram%y
                                                                 1.00 
      613 x_buffer_arr0.x_and31.x_pm_and2x2_asap7_75t_sram%7.
                                            pm_and2x2_asap7_75t_sram%7
                                                                 1.00 
      614 x_buffer_arr0.x_buf32.x_inv1.   inverter           1.00 
      615 x_buffer_arr0.x_buf32.x_inv2.   inverter           1.00 
      616 x_buffer_arr0.x_and32.x_pm_and2x2_asap7_75t_sram%b.
                                            pm_and2x2_asap7_75t_sram%b
                                                                 1.00 
      617 x_buffer_arr0.x_and32.x_pm_and2x2_asap7_75t_sram%a.
                                            pm_and2x2_asap7_75t_sram%a
                                                                 1.00 
      618 x_buffer_arr0.x_and32.x_pm_and2x2_asap7_75t_sram%5.
                                            pm_and2x2_asap7_75t_sram%5
                                                                 1.00 
      619 x_buffer_arr0.x_and32.x_pm_and2x2_asap7_75t_sram%y.
                                            pm_and2x2_asap7_75t_sram%y
                                                                 1.00 
      620 x_buffer_arr0.x_and32.x_pm_and2x2_asap7_75t_sram%7.
                                            pm_and2x2_asap7_75t_sram%7
                                                                 1.00 
      621 x_buffer_arr0.x_buf33.x_inv1.   inverter           1.00 
      622 x_buffer_arr0.x_buf33.x_inv2.   inverter           1.00 
      623 x_buffer_arr0.x_and33.x_pm_and2x2_asap7_75t_sram%b.
                                            pm_and2x2_asap7_75t_sram%b
                                                                 1.00 
      624 x_buffer_arr0.x_and33.x_pm_and2x2_asap7_75t_sram%a.
                                            pm_and2x2_asap7_75t_sram%a
                                                                 1.00 
      625 x_buffer_arr0.x_and33.x_pm_and2x2_asap7_75t_sram%5.
                                            pm_and2x2_asap7_75t_sram%5
                                                                 1.00 
      626 x_buffer_arr0.x_and33.x_pm_and2x2_asap7_75t_sram%y.
                                            pm_and2x2_asap7_75t_sram%y
                                                                 1.00 
      627 x_buffer_arr0.x_and33.x_pm_and2x2_asap7_75t_sram%7.
                                            pm_and2x2_asap7_75t_sram%7
                                                                 1.00 
      628 x_buffer_arr0.x_buf34.x_inv1.   inverter           1.00 
      629 x_buffer_arr0.x_buf34.x_inv2.   inverter           1.00 
      630 x_buffer_arr0.x_and34.x_pm_and2x2_asap7_75t_sram%b.
                                            pm_and2x2_asap7_75t_sram%b
                                                                 1.00 
      631 x_buffer_arr0.x_and34.x_pm_and2x2_asap7_75t_sram%a.
                                            pm_and2x2_asap7_75t_sram%a
                                                                 1.00 
      632 x_buffer_arr0.x_and34.x_pm_and2x2_asap7_75t_sram%5.
                                            pm_and2x2_asap7_75t_sram%5
                                                                 1.00 
      633 x_buffer_arr0.x_and34.x_pm_and2x2_asap7_75t_sram%y.
                                            pm_and2x2_asap7_75t_sram%y
                                                                 1.00 
      634 x_buffer_arr0.x_and34.x_pm_and2x2_asap7_75t_sram%7.
                                            pm_and2x2_asap7_75t_sram%7
                                                                 1.00 
      635 x_buffer_arr0.x_buf35.x_inv1.   inverter           1.00 
      636 x_buffer_arr0.x_buf35.x_inv2.   inverter           1.00 
      637 x_buffer_arr0.x_and35.x_pm_and2x2_asap7_75t_sram%b.
                                            pm_and2x2_asap7_75t_sram%b
                                                                 1.00 
      638 x_buffer_arr0.x_and35.x_pm_and2x2_asap7_75t_sram%a.
                                            pm_and2x2_asap7_75t_sram%a
                                                                 1.00 
      639 x_buffer_arr0.x_and35.x_pm_and2x2_asap7_75t_sram%5.
                                            pm_and2x2_asap7_75t_sram%5
                                                                 1.00 
      640 x_buffer_arr0.x_and35.x_pm_and2x2_asap7_75t_sram%y.
                                            pm_and2x2_asap7_75t_sram%y
                                                                 1.00 
      641 x_buffer_arr0.x_and35.x_pm_and2x2_asap7_75t_sram%7.
                                            pm_and2x2_asap7_75t_sram%7
                                                                 1.00 
      642 x_buffer_arr0.x_buf36.x_inv1.   inverter           1.00 
      643 x_buffer_arr0.x_buf36.x_inv2.   inverter           1.00 
      644 x_buffer_arr0.x_and36.x_pm_and2x2_asap7_75t_sram%b.
                                            pm_and2x2_asap7_75t_sram%b
                                                                 1.00 
      645 x_buffer_arr0.x_and36.x_pm_and2x2_asap7_75t_sram%a.
                                            pm_and2x2_asap7_75t_sram%a
                                                                 1.00 
      646 x_buffer_arr0.x_and36.x_pm_and2x2_asap7_75t_sram%5.
                                            pm_and2x2_asap7_75t_sram%5
                                                                 1.00 
      647 x_buffer_arr0.x_and36.x_pm_and2x2_asap7_75t_sram%y.
                                            pm_and2x2_asap7_75t_sram%y
                                                                 1.00 
      648 x_buffer_arr0.x_and36.x_pm_and2x2_asap7_75t_sram%7.
                                            pm_and2x2_asap7_75t_sram%7
                                                                 1.00 
      649 x_buffer_arr0.x_buf37.x_inv1.   inverter           1.00 
      650 x_buffer_arr0.x_buf37.x_inv2.   inverter           1.00 
      651 x_buffer_arr0.x_and37.x_pm_and2x2_asap7_75t_sram%b.
                                            pm_and2x2_asap7_75t_sram%b
                                                                 1.00 
      652 x_buffer_arr0.x_and37.x_pm_and2x2_asap7_75t_sram%a.
                                            pm_and2x2_asap7_75t_sram%a
                                                                 1.00 
      653 x_buffer_arr0.x_and37.x_pm_and2x2_asap7_75t_sram%5.
                                            pm_and2x2_asap7_75t_sram%5
                                                                 1.00 
      654 x_buffer_arr0.x_and37.x_pm_and2x2_asap7_75t_sram%y.
                                            pm_and2x2_asap7_75t_sram%y
[...]
 +1045:31      = 699.9999m 1045:36      = 699.9999m 1045:37      = 699.9999m
 +1045:40      = 699.9999m 1045:42      = 699.9999m 1045:45      = 699.9999m
 +1045:47      = 699.9999m 1045:51      = 699.9999m 1045:55      = 699.9999m
 +1045:61      = 699.9999m 1046:11      =  43.4302n 1046:16      =  44.1793n
 +1046:25      =  43.6444n 1046:26      =  44.0392n 1046:29      =  43.7501n
 +1046:33      =  43.9701n 1046:34      =  44.0047n 1050:20      =   3.8743p
 +1052:5       = 699.9999m 1052:27      = 699.9999m 1052:31      = 699.9999m
 +1052:36      = 699.9999m 1052:37      = 699.9999m 1052:40      = 699.9999m
 +1052:42      = 699.9999m 1052:45      = 699.9999m 1052:47      = 699.9999m
 +1052:51      = 699.9999m 1052:55      = 699.9999m 1052:61      = 699.9999m
 +1053:11      =  43.4302n 1053:16      =  44.1793n 1053:25      =  43.6444n
 +1053:26      =  44.0392n 1053:29      =  43.7501n 1053:33      =  43.9701n
 +1053:34      =  44.0047n 1057:20      =   3.8743p 1059:5       = 699.9999m
 +1059:27      = 699.9999m 1059:31      = 699.9999m 1059:36      = 699.9999m
 +1059:37      = 699.9999m 1059:40      = 699.9999m 1059:42      = 699.9999m
 +1059:45      = 699.9999m 1059:47      = 699.9999m 1059:51      = 699.9999m
 +1059:55      = 699.9999m 1059:61      = 699.9999m 1060:11      =  43.4302n
 +1060:16      =  44.1793n 1060:25      =  43.6444n 1060:26      =  44.0392n
 +1060:29      =  43.7501n 1060:33      =  43.9701n 1060:34      =  44.0047n
 +1064:20      =   3.8743p 1066:5       = 699.9999m 1066:27      = 699.9999m
 +1066:31      = 699.9999m 1066:36      = 699.9999m 1066:37      = 699.9999m
 +1066:40      = 699.9999m 1066:42      = 699.9999m 1066:45      = 699.9999m
 +1066:47      = 699.9999m 1066:51      = 699.9999m 1066:55      = 699.9999m
 +1066:61      = 699.9999m 1067:11      =  43.4302n 1067:16      =  44.1793n
 +1067:25      =  43.6444n 1067:26      =  44.0392n 1067:29      =  43.7501n
 +1067:33      =  43.9701n 1067:34      =  44.0047n 1071:20      =   3.8743p
 +1073:5       = 699.9999m 1073:27      = 699.9999m 1073:31      = 699.9999m
 +1073:36      = 699.9999m 1073:37      = 699.9999m 1073:40      = 699.9999m
 +1073:42      = 699.9999m 1073:45      = 699.9999m 1073:47      = 699.9999m
 +1073:51      = 699.9999m 1073:55      = 699.9999m 1073:61      = 699.9999m
 +1074:11      =  43.4302n 1074:16      =  44.1793n 1074:25      =  43.6444n
 +1074:26      =  44.0392n 1074:29      =  43.7501n 1074:33      =  43.9701n
 +1074:34      =  44.0047n 1078:20      =   3.8743p 1080:5       = 699.9999m
 +1080:27      = 699.9999m 1080:31      = 699.9999m 1080:36      = 699.9999m
 +1080:37      = 699.9999m 1080:40      = 699.9999m 1080:42      = 699.9999m
 +1080:45      = 699.9999m 1080:47      = 699.9999m 1080:51      = 699.9999m
 +1080:55      = 699.9999m 1080:61      = 699.9999m 1081:11      =  43.4302n
 +1081:16      =  44.1793n 1081:25      =  43.6444n 1081:26      =  44.0392n
 +1081:29      =  43.7501n 1081:33      =  43.9701n 1081:34      =  44.0047n
 +1085:20      =   3.8743p 1087:5       = 699.9999m 1087:27      = 699.9999m
 +1087:31      = 699.9999m 1087:36      = 699.9999m 1087:37      = 699.9999m
 +1087:40      = 699.9999m 1087:42      = 699.9999m 1087:45      = 699.9999m
 +1087:47      = 699.9999m 1087:51      = 699.9999m 1087:55      = 699.9999m
 +1087:61      = 699.9999m 1088:11      =  43.4302n 1088:16      =  44.1793n
 +1088:25      =  43.6444n 1088:26      =  44.0392n 1088:29      =  43.7501n
 +1088:33      =  43.9701n 1088:34      =  44.0047n 1092:20      =   3.8743p
 +1094:5       = 699.9999m 1094:27      = 699.9999m 1094:31      = 699.9999m
 +1094:36      = 699.9999m 1094:37      = 699.9999m 1094:40      = 699.9999m
 +1094:42      = 699.9999m 1094:45      = 699.9999m 1094:47      = 699.9999m
 +1094:51      = 699.9999m 1094:55      = 699.9999m 1094:61      = 699.9999m
 +1095:11      =  43.4302n 1095:16      =  44.1793n 1095:25      =  43.6444n
 +1095:26      =  44.0392n 1095:29      =  43.7501n 1095:33      =  43.9701n
 +1095:34      =  44.0047n 1099:20      =   3.8743p 1101:5       = 699.9999m
 +1101:27      = 699.9999m 1101:31      = 699.9999m 1101:36      = 699.9999m
 +1101:37      = 699.9999m 1101:40      = 699.9999m 1101:42      = 699.9999m
 +1101:45      = 699.9999m 1101:47      = 699.9999m 1101:51      = 699.9999m
 +1101:55      = 699.9999m 1101:61      = 699.9999m 1102:11      =  43.4302n
 +1102:16      =  44.1793n 1102:25      =  43.6444n 1102:26      =  44.0392n
 +1102:29      =  43.7501n 1102:33      =  43.9701n 1102:34      =  44.0047n
 +1106:20      =   3.8743p 1108:5       = 699.9999m 1108:27      = 699.9999m
 +1108:31      = 699.9999m 1108:36      = 699.9999m 1108:37      = 699.9999m
 +1108:40      = 699.9999m 1108:42      = 699.9999m 1108:45      = 699.9999m
 +1108:47      = 699.9999m 1108:51      = 699.9999m 1108:55      = 699.9999m
 +1108:61      = 699.9999m 1109:11      =  43.4302n 1109:16      =  44.1793n
 +1109:25      =  43.6444n 1109:26      =  44.0392n 1109:29      =  43.7501n
 +1109:33      =  43.9701n 1109:34      =  44.0047n 1113:20      =   3.8743p
 +1115:5       = 699.9999m 1115:27      = 699.9999m 1115:31      = 699.9999m
 +1115:36      = 699.9999m 1115:37      = 699.9999m 1115:40      = 699.9999m
 +1115:42      = 699.9999m 1115:45      = 699.9999m 1115:47      = 699.9999m
 +1115:51      = 699.9999m 1115:55      = 699.9999m 1115:61      = 699.9999m
 +1116:11      =  43.4302n 1116:16      =  44.1793n 1116:25      =  43.6444n
 +1116:26      =  44.0392n 1116:29      =  43.7501n 1116:33      =  43.9701n
 +1116:34      =  44.0047n 1120:20      =   3.8743p 1122:5       = 699.9999m
 +1122:27      = 699.9999m 1122:31      = 699.9999m 1122:36      = 699.9999m
 +1122:37      = 699.9999m 1122:40      = 699.9999m 1122:42      = 699.9999m
 +1122:45      = 699.9999m 1122:47      = 699.9999m 1122:51      = 699.9999m
 +1122:55      = 699.9999m 1122:61      = 699.9999m 1123:11      =  43.4302n
 +1123:16      =  44.1793n 1123:25      =  43.6444n 1123:26      =  44.0392n
 +1123:29      =  43.7501n 1123:33      =  43.9701n 1123:34      =  44.0047n
 +1127:20      =   3.8743p 1129:5       = 699.9999m 1129:27      = 699.9999m
 +1129:31      = 699.9999m 1129:36      = 699.9999m 1129:37      = 699.9999m
 +1129:40      = 699.9999m 1129:42      = 699.9999m 1129:45      = 699.9999m
 +1129:47      = 699.9999m 1129:51      = 699.9999m 1129:55      = 699.9999m
 +1129:61      = 699.9999m 1130:11      =  43.4302n 1130:16      =  44.1793n
 +1130:25      =  43.6444n 1130:26      =  44.0392n 1130:29      =  43.7501n
 +1130:33      =  43.9701n 1130:34      =  44.0047n 1134:20      =   3.8743p
 +1136:5       = 699.9999m 1136:27      = 699.9999m 1136:31      = 699.9999m
 +1136:36      = 699.9999m 1136:37      = 699.9999m 1136:40      = 699.9999m
 +1136:42      = 699.9999m 1136:45      = 699.9999m 1136:47      = 699.9999m
 +1136:51      = 699.9999m 1136:55      = 699.9999m 1136:61      = 699.9999m
 +1137:11      =  43.4302n 1137:16      =  44.1793n 1137:25      =  43.6444n
 +1137:26      =  44.0392n 1137:29      =  43.7501n 1137:33      =  43.9701n
 +1137:34      =  44.0047n 1141:20      =   3.8743p 1143:5       = 699.9999m
 +1143:27      = 699.9999m 1143:31      = 699.9999m 1143:36      = 699.9999m
 +1143:37      = 699.9999m 1143:40      = 699.9999m 1143:42      = 699.9999m
 +1143:45      = 699.9999m 1143:47      = 699.9999m 1143:51      = 699.9999m
 +1143:55      = 699.9999m 1143:61      = 699.9999m 1144:11      =  43.4302n
 +1144:16      =  44.1793n 1144:25      =  43.6444n 1144:26      =  44.0392n
 +1144:29      =  43.7501n 1144:33      =  43.9701n 1144:34      =  44.0047n
 +1148:20      =   3.8743p 1150:5       = 699.9999m 1150:27      = 699.9999m
 +1150:31      = 699.9999m 1150:36      = 699.9999m 1150:37      = 699.9999m
 +1150:40      = 699.9999m 1150:42      = 699.9999m 1150:45      = 699.9999m
 +1150:47      = 699.9999m 1150:51      = 699.9999m 1150:55      = 699.9999m
 +1150:61      = 699.9999m 1151:11      =  43.4302n 1151:16      =  44.1793n
 +1151:25      =  43.6444n 1151:26      =  44.0392n 1151:29      =  43.7501n
 +1151:33      =  43.9701n 1151:34      =  44.0047n 1155:20      =   3.8743p
 +1157:5       = 699.9999m 1157:27      = 699.9999m 1157:31      = 699.9999m
 +1157:36      = 699.9999m 1157:37      = 699.9999m 1157:40      = 699.9999m
 +1157:42      = 699.9999m 1157:45      = 699.9999m 1157:47      = 699.9999m
 +1157:51      = 699.9999m 1157:55      = 699.9999m 1157:61      = 699.9999m
 +1158:11      =  43.4302n 1158:16      =  44.1793n 1158:25      =  43.6444n
 +1158:26      =  44.0392n 1158:29      =  43.7501n 1158:33      =  43.9701n
 +1158:34      =  44.0047n 1162:20      =   3.8743p 1164:5       = 699.9999m
 +1164:27      = 699.9999m 1164:31      = 699.9999m 1164:36      = 699.9999m
 +1164:37      = 699.9999m 1164:40      = 699.9999m 1164:42      = 699.9999m
 +1164:45      = 699.9999m 1164:47      = 699.9999m 1164:51      = 699.9999m
 +1164:55      = 699.9999m 1164:61      = 699.9999m 1165:11      =  43.4302n
 +1165:16      =  44.1793n 1165:25      =  43.6444n 1165:26      =  44.0392n
 +1165:29      =  43.7501n 1165:33      =  43.9701n 1165:34      =  44.0047n
 +1169:20      =   3.8743p 1171:5       = 699.9999m 1171:27      = 699.9999m
 +1171:31      = 699.9999m 1171:36      = 699.9999m 1171:37      = 699.9999m
 +1171:40      = 699.9999m 1171:42      = 699.9999m 1171:45      = 699.9999m
 +1171:47      = 699.9999m 1171:51      = 699.9999m 1171:55      = 699.9999m
 +1171:61      = 699.9999m 1172:11      =  43.4302n 1172:16      =  44.1793n
 +1172:25      =  43.6444n 1172:26      =  44.0392n 1172:29      =  43.7501n
 +1172:33      =  43.9701n 1172:34      =  44.0047n 1176:20      =   3.8743p
 +1178:5       = 699.9999m 1178:27      = 699.9999m 1178:31      = 699.9999m
 +1178:36      = 699.9999m 1178:37      = 699.9999m 1178:40      = 699.9999m
 +1178:42      = 699.9999m 1178:45      = 699.9999m 1178:47      = 699.9999m
 +1178:51      = 699.9999m 1178:55      = 699.9999m 1178:61      = 699.9999m
 +1179:11      =  43.4302n 1179:16      =  44.1793n 1179:25      =  43.6444n
 +1179:26      =  44.0392n 1179:29      =  43.7501n 1179:33      =  43.9701n
 +1179:34      =  44.0047n 1183:20      =   3.8743p 1185:5       = 699.9999m
 +1185:27      = 699.9999m 1185:31      = 699.9999m 1185:36      = 699.9999m
 +1185:37      = 699.9999m 1185:40      = 699.9999m 1185:42      = 699.9999m
 +1185:45      = 699.9999m 1185:47      = 699.9999m 1185:51      = 699.9999m
 +1185:55      = 699.9999m 1185:61      = 699.9999m 1186:11      =  43.4302n
 +1186:16      =  44.1793n 1186:25      =  43.6444n 1186:26      =  44.0392n
 +1186:29      =  43.7501n 1186:33      =  43.9701n 1186:34      =  44.0047n
 +1190:20      =   3.8743p 1192:5       = 699.9999m 1192:27      = 699.9999m
 +1192:31      = 699.9999m 1192:36      = 699.9999m 1192:37      = 699.9999m
 +1192:40      = 699.9999m 1192:42      = 699.9999m 1192:45      = 699.9999m
 +1192:47      = 699.9999m 1192:51      = 699.9999m 1192:55      = 699.9999m
 +1192:61      = 699.9999m 1193:11      =  43.4302n 1193:16      =  44.1793n
 +1193:25      =  43.6444n 1193:26      =  44.0392n 1193:29      =  43.7501n
 +1193:33      =  43.9701n 1193:34      =  44.0047n 1197:20      =   3.8743p
 +1199:5       = 699.9999m 1199:27      = 699.9999m 1199:31      = 699.9999m
 +1199:36      = 699.9999m 1199:37      = 699.9999m 1199:40      = 699.9999m
 +1199:42      = 699.9999m 1199:45      = 699.9999m 1199:47      = 699.9999m
 +1199:51      = 699.9999m 1199:55      = 699.9999m 1199:61      = 699.9999m
 +1200:11      =  43.4302n 1200:16      =  44.1793n 1200:25      =  43.6444n
 +1200:26      =  44.0392n 1200:29      =  43.7501n 1200:33      =  43.9701n
 +1200:34      =  44.0047n 1204:20      =   3.8743p 1206:5       = 699.9999m
 +1206:27      = 699.9999m 1206:31      = 699.9999m 1206:36      = 699.9999m
 +1206:37      = 699.9999m 1206:40      = 699.9999m 1206:42      = 699.9999m
 +1206:45      = 699.9999m 1206:47      = 699.9999m 1206:51      = 699.9999m
 +1206:55      = 699.9999m 1206:61      = 699.9999m 1207:11      =  43.4302n
 +1207:16      =  44.1793n 1207:25      =  43.6444n 1207:26      =  44.0392n
 +1207:29      =  43.7501n 1207:33      =  43.9701n 1207:34      =  44.0047n
 +1211:20      =   3.8743p 1213:5       = 699.9999m 1213:27      = 699.9999m
 +1213:31      = 699.9999m 1213:36      = 699.9999m 1213:37      = 699.9999m
 +1213:40      = 699.9999m 1213:42      = 699.9999m 1213:45      = 699.9999m
 +1213:47      = 699.9999m 1213:51      = 699.9999m 1213:55      = 699.9999m
 +1213:61      = 699.9999m 1214:11      =  43.4302n 1214:16      =  44.1793n
 +1214:25      =  43.6444n 1214:26      =  44.0392n 1214:29      =  43.7501n
 +1214:33      =  43.9701n 1214:34      =  44.0047n 1218:20      =   3.8743p
 +1220:5       = 699.9999m 1220:27      = 699.9999m 1220:31      = 699.9999m
 +1220:36      = 699.9999m 1220:37      = 699.9999m 1220:40      = 699.9999m
 +1220:42      = 699.9999m 1220:45      = 699.9999m 1220:47      = 699.9999m
 +1220:51      = 699.9999m 1220:55      = 699.9999m 1220:61      = 699.9999m
 +1221:11      =  43.4302n 1221:16      =  44.1793n 1221:25      =  43.6444n
 +1221:26      =  44.0392n 1221:29      =  43.7501n 1221:33      =  43.9701n
 +1221:34      =  44.0047n 1225:20      =   3.8743p 1227:5       = 699.9999m
 +1227:27      = 699.9999m 1227:31      = 699.9999m 1227:36      = 699.9999m
 +1227:37      = 699.9999m 1227:40      = 699.9999m 1227:42      = 699.9999m
 +1227:45      = 699.9999m 1227:47      = 699.9999m 1227:51      = 699.9999m
 +1227:55      = 699.9999m 1227:61      = 699.9999m 1228:11      =  43.4302n
 +1228:16      =  44.1793n 1228:25      =  43.6444n 1228:26      =  44.0392n
 +1228:29      =  43.7501n 1228:33      =  43.9701n 1228:34      =  44.0047n
 +1232:20      =   3.8743p 1234:5       = 699.9999m 1234:27      = 699.9999m
 +1234:31      = 699.9999m 1234:36      = 699.9999m 1234:37      = 699.9999m
 +1234:40      = 699.9999m 1234:42      = 699.9999m 1234:45      = 699.9999m
 +1234:47      = 699.9999m 1234:51      = 699.9999m 1234:55      = 699.9999m
 +1234:61      = 699.9999m 1235:11      =  43.4302n 1235:16      =  44.1793n
 +1235:25      =  43.6444n 1235:26      =  44.0392n 1235:29      =  43.7501n
 +1235:33      =  43.9701n 1235:34      =  44.0047n 1239:20      =   3.8743p
 +1241:5       = 699.9999m 1241:27      = 699.9999m 1241:31      = 699.9999m
 +1241:36      = 699.9999m 1241:37      = 699.9999m 1241:40      = 699.9999m
 +1241:42      = 699.9999m 1241:45      = 699.9999m 1241:47      = 699.9999m
 +1241:51      = 699.9999m 1241:55      = 699.9999m 1241:61      = 699.9999m
 +1242:11      =  43.4302n 1242:16      =  44.1793n 1242:25      =  43.6444n
 +1242:26      =  44.0392n 1242:29      =  43.7501n 1242:33      =  43.9701n
 +1242:34      =  44.0047n 1246:20      =   3.8743p 1248:5       = 699.9999m
 +1248:27      = 699.9999m 1248:31      = 699.9999m 1248:36      = 699.9999m
 +1248:37      = 699.9999m 1248:40      = 699.9999m 1248:42      = 699.9999m
 +1248:45      = 699.9999m 1248:47      = 699.9999m 1248:51      = 699.9999m
 +1248:55      = 699.9999m 1248:61      = 699.9999m 1249:11      =  43.4302n
 +1249:16      =  44.1793n 1249:25      =  43.6444n 1249:26      =  44.0392n
 +1249:29      =  43.7501n 1249:33      =  43.9701n 1249:34      =  44.0047n
 +1253:20      =   3.8743p 1255:5       = 699.9999m 1255:27      = 699.9999m
 +1255:31      = 699.9999m 1255:36      = 699.9999m 1255:37      = 699.9999m
 +1255:40      = 699.9999m 1255:42      = 699.9999m 1255:45      = 699.9999m
 +1255:47      = 699.9999m 1255:51      = 699.9999m 1255:55      = 699.9999m
 +1255:61      = 699.9999m 1256:11      =  43.4302n 1256:16      =  44.1793n
 +1256:25      =  43.6444n 1256:26      =  44.0392n 1256:29      =  43.7501n
 +1256:33      =  43.9701n 1256:34      =  44.0047n 1260:20      =   3.8743p
 +1262:5       = 699.9999m 1262:27      = 699.9999m 1262:31      = 699.9999m
 +1262:36      = 699.9999m 1262:37      = 699.9999m 1262:40      = 699.9999m
 +1262:42      = 699.9999m 1262:45      = 699.9999m 1262:47      = 699.9999m
 +1262:51      = 699.9999m 1262:55      = 699.9999m 1262:61      = 699.9999m
 +1263:11      =  43.4302n 1263:16      =  44.1793n 1263:25      =  43.6444n
 +1263:26      =  44.0392n 1263:29      =  43.7501n 1263:33      =  43.9701n
 +1263:34      =  44.0047n 1267:20      =   3.8743p 1269:5       = 699.9999m
 +1269:27      = 699.9999m 1269:31      = 699.9999m 1269:36      = 699.9999m
 +1269:37      = 699.9999m 1269:40      = 699.9999m 1269:42      = 699.9999m
 +1269:45      = 699.9999m 1269:47      = 699.9999m 1269:51      = 699.9999m
 +1269:55      = 699.9999m 1269:61      = 699.9999m 1270:11      =  43.4302n
 +1270:16      =  44.1793n 1270:25      =  43.6444n 1270:26      =  44.0392n
 +1270:29      =  43.7501n 1270:33      =  43.9701n 1270:34      =  44.0047n
 +1274:20      =   3.8743p 1276:5       = 699.9999m 1276:27      = 699.9999m
 +1276:31      = 699.9999m 1276:36      = 699.9999m 1276:37      = 699.9999m
 +1276:40      = 699.9999m 1276:42      = 699.9999m 1276:45      = 699.9999m
 +1276:47      = 699.9999m 1276:51      = 699.9999m 1276:55      = 699.9999m
 +1276:61      = 699.9999m 1277:11      =  43.4302n 1277:16      =  44.1793n
 +1277:25      =  43.6444n 1277:26      =  44.0392n 1277:29      =  43.7501n
 +1277:33      =  43.9701n 1277:34      =  44.0047n 1281:20      =   3.8743p
 +1283:5       = 699.9999m 1283:27      = 699.9999m 1283:31      = 699.9999m
 +1283:36      = 699.9999m 1283:37      = 699.9999m 1283:40      = 699.9999m
 +1283:42      = 699.9999m 1283:45      = 699.9999m 1283:47      = 699.9999m
 +1283:51      = 699.9999m 1283:55      = 699.9999m 1283:61      = 699.9999m
 +1284:11      =  43.4302n 1284:16      =  44.1793n 1284:25      =  43.6444n
 +1284:26      =  44.0392n 1284:29      =  43.7501n 1284:33      =  43.9701n
 +1284:34      =  44.0047n

 ******
 .tile sense amplifier testbed

 ****** transient analysis tnom=  25.000 temp=  25.000 ******

          ***** job concluded
 ******  
 .tile sense amplifier testbed

 ****** job statistics summary tnom=  25.000 temp=  25.000 ******
  
 ******  Machine Information  ******
 CPU:
 model name	: AMD EPYC 7713 64-Core Processor
 cpu MHz	: 1500.000
  
 OS:
 Linux version 3.10.0-1160.88.1.el7.x86_64 (mockbuild@kbuilder.bsys.centos.org) (gcc version 4.8.5 20150623 (Red Hat 4.8.5-44) (GCC) ) #1 SMP Tue Mar 7 15:41:52 UTC 2023


  ******  HSPICE Threads Information  ******

  Command Line Threads Count :     1
  Available CPU Count        :   256
  Actual Threads Count       :     1


  ******  Circuit Statistics  ******
  # nodes       =    9485 # elements   =   22551
  # resistors   =    8448 # capacitors =   11650 # inductors   =       0
  # mutual_inds =       0 # vccs       =       0 # vcvs        =       0
  # cccs        =       0 # ccvs       =       0 # volt_srcs   =       2
  # curr_srcs   =       0 # diodes     =       0 # bjts        =       0
  # jfets       =       0 # mosfets    =    2323 # U elements  =       0
  # T elements  =       0 # W elements =       0 # B elements  =       0
  # S elements  =       0 # P elements =       0 # va device   =       0
  # vector_srcs =     128 # N elements =       0


  ******  Runtime Statistics (seconds)  ******

  analysis           time    # points   tot. iter  conv.iter
  op point           0.31           1          17
  transient          4.93       10001        2882         840 rev=        55
  readin             0.09
  errchk             0.19
  setup              0.17
  output             0.00


           peak memory used        462.61 megabytes
           total cpu time            5.77 seconds
           total elapsed time        5.93 seconds
           job started at     15:33:19 04/20/2025
           job ended   at     15:33:24 04/20/2025
           job total runtime         5.93 seconds


 lic: Release hspice token(s) 
 lic: total license checkout elapse time:        0.15(s)
