$DATA1 SOURCE='HSPICE' VERSION='Q-2020.03-SP2-2 linux64' PARAM_COUNT=0
.TITLE '.title noise margin in hold operation'
 snm              cross_point      max_1            max_2           
 snm2             temper           alter#          
  5.876e-02         -0.3256         8.310e-02        8.310e-02      
  5.876e-02         25.0000        1               
