$DATA1 SOURCE='HSPICE' VERSION='Q-2020.03-SP2-2 linux64' PARAM_COUNT=0
.TITLE '.title noise margin in hold operation'
 snm              cross_point      max_1            max_2           
 snm2             temper           alter#          
    0.1571          -0.4114           0.2221           0.2221       
    0.1571          25.0000        3               
