 ****** HSPICE -- Q-2020.03-SP2-2 linux64 (Nov  1 2020) ******                  
  Copyright (c) 1986 - 2025 by Synopsys, Inc. All Rights Reserved.              
  This software and the associated documentation are proprietary
  to Synopsys, Inc. This software may only be used in accordance
  with the terms and conditions of a written license agreement with
  Synopsys, Inc. All other use, reproduction, or distribution of
  this software is strictly prohibited.
  Input File: SRAM_SNM_TT.sp                                                    
  Command line options: /RAID2/cad/synopsys/hspice/2020.03-sp2-2/hspice/linux64/hspice -i SRAM_SNM_TT.sp -o SRAM_SNM_TT.lis
  Start time: Thu Mar 20 19:53:11 2025
 lic:  
 lic: FLEXlm: SDK_12.6 
 lic: USER:   es25MCS042           HOSTNAME: ee28 
 lic: HOSTID: "d85ed3efc19a"       PID:      152459 
 lic: Using FLEXlm license file: 
 lic: 26585@lshc 
 lic: Checkout 1 hspice 
 lic: License/Maintenance for hspice will expire on 14-may-2025/2024.09 
 lic: 256(in_use)/1100(total) FLOATING license(s) on SERVER 26585@lshc 
 lic:   
  
      
             
 Warning:'Floating bulk' occurs 1 times
 Summary of floating bulk:
 -----------------------
 |Node      |Device    |
 |----------+----------|
 |x         |mpr       |
 -----------------------
              
 *****************************************************************
 ******  option summary
 ******
 runlvl  = 3         bypass  = 2.0000    
 ******
 .title noise margin in hold operation

 ****** dc transfer curves tnom=  25.000 temp=  25.000 ******
x

 volt         voltage    voltage    voltage    voltage   
             gl         gr         v1         v2         
 -494.97475m   -8.9308n  700.0000m  494.9747m  494.9748m 
 -494.87475m  141.4124u  699.8586m  495.0747m  494.8748m 
 -494.77475m  282.8337u  699.7172m  495.1747m  494.7748m 
 -494.67475m  424.2550u  699.5758m  495.2747m  494.6748m 
 -494.57475m  565.6764u  699.4343m  495.3747m  494.5748m 
 -494.47475m  707.0977u  699.2929m  495.4747m  494.4748m 
 -494.37475m  848.5190u  699.1515m  495.5747m  494.3748m 
 -494.27475m  989.9403u  699.0101m  495.6747m  494.2748m 
 -494.17475m    1.1314m  698.8687m  495.7747m  494.1748m 
 -494.07475m    1.2728m  698.7272m  495.8747m  494.0748m 
 -493.97475m    1.4142m  698.5858m  495.9747m  493.9748m 
 -493.87475m    1.5556m  698.4444m  496.0747m  493.8748m 
 -493.77475m    1.6970m  698.3030m  496.1747m  493.7748m 
 -493.67475m    1.8385m  698.1616m  496.2747m  493.6748m 
 -493.57475m    1.9799m  698.0201m  496.3747m  493.5748m 
 -493.47475m    2.1213m  697.8787m  496.4747m  493.4748m 
 -493.37475m    2.2627m  697.7373m  496.5747m  493.3748m 
 -493.27475m    2.4042m  697.5959m  496.6747m  493.2748m 
 -493.17475m    2.5456m  697.4544m  496.7747m  493.1748m 
 -493.07475m    2.6870m  697.3130m  496.8747m  493.0748m 
 -492.97475m    2.8284m  697.1716m  496.9747m  492.9748m 
 -492.87475m    2.9698m  697.0302m  497.0747m  492.8748m 
 -492.77475m    3.1113m  696.8888m  497.1747m  492.7748m 
 -492.67475m    3.2527m  696.7473m  497.2747m  492.6748m 
 -492.57475m    3.3941m  696.6059m  497.3747m  492.5748m 
 -492.47475m    3.5355m  696.4645m  497.4747m  492.4748m 
 -492.37475m    3.6769m  696.3231m  497.5747m  492.3748m 
 -492.27475m    3.8184m  696.1817m  497.6747m  492.2748m 
 -492.17475m    3.9598m  696.0402m  497.7747m  492.1748m 
 -492.07475m    4.1012m  695.8988m  497.8747m  492.0748m 
 -491.97475m    4.2426m  695.7574m  497.9747m  491.9748m 
 -491.87475m    4.3841m  695.6160m  498.0747m  491.8748m 
 -491.77475m    4.5255m  695.4746m  498.1747m  491.7748m 
 -491.67475m    4.6669m  695.3331m  498.2747m  491.6748m 
 -491.57475m    4.8083m  695.1917m  498.3747m  491.5748m 
 -491.47475m    4.9497m  695.0503m  498.4747m  491.4748m 
 -491.37475m    5.0912m  694.9089m  498.5747m  491.3748m 
 -491.27475m    5.2326m  694.7674m  498.6747m  491.2748m 
 -491.17475m    5.3740m  694.6260m  498.7747m  491.1748m 
 -491.07475m    5.5154m  694.4846m  498.8747m  491.0748m 
 -490.97475m    5.6568m  694.3432m  498.9747m  490.9748m 
 -490.87475m    5.7983m  694.2018m  499.0747m  490.8748m 
 -490.77475m    5.9397m  694.0603m  499.1747m  490.7748m 
 -490.67475m    6.0811m  693.9189m  499.2747m  490.6748m 
 -490.57475m    6.2225m  693.7775m  499.3747m  490.5748m 
 -490.47475m    6.3640m  693.6361m  499.4747m  490.4748m 
 -490.37475m    6.5054m  693.4947m  499.5747m  490.3748m 
 -490.27475m    6.6468m  693.3532m  499.6747m  490.2748m 
 -490.17475m    6.7882m  693.2118m  499.7747m  490.1748m 
 -490.07475m    6.9296m  693.0704m  499.8747m  490.0748m 
 -489.97475m    7.0711m  692.9290m  499.9747m  489.9748m 
 -489.87475m    7.2125m  692.7876m  500.0747m  489.8748m 
 -489.77475m    7.3539m  692.6461m  500.1747m  489.7748m 
 -489.67475m    7.4953m  692.5047m  500.2747m  489.6748m 
 -489.57475m    7.6367m  692.3633m  500.3747m  489.5748m 
 -489.47475m    7.7782m  692.2219m  500.4747m  489.4748m 
 -489.37475m    7.9196m  692.0804m  500.5747m  489.3748m 
 -489.27475m    8.0610m  691.9390m  500.6747m  489.2748m 
 -489.17475m    8.2024m  691.7976m  500.7747m  489.1748m 
 -489.07475m    8.3438m  691.6562m  500.8747m  489.0748m 
 -488.97475m    8.4853m  691.5148m  500.9747m  488.9748m 
 -488.87475m    8.6267m  691.3733m  501.0747m  488.8748m 
 -488.77475m    8.7681m  691.2319m  501.1747m  488.7748m 
 -488.67475m    8.9095m  691.0905m  501.2747m  488.6748m 
 -488.57475m    9.0510m  690.9491m  501.3747m  488.5748m 
 -488.47475m    9.1924m  690.8077m  501.4747m  488.4748m 
 -488.37475m    9.3338m  690.6662m  501.5747m  488.3748m 
 -488.27475m    9.4752m  690.5248m  501.6747m  488.2748m 
 -488.17475m    9.6166m  690.3834m  501.7747m  488.1748m 
 -488.07475m    9.7581m  690.2420m  501.8747m  488.0748m 
 -487.97475m    9.8995m  690.1005m  501.9747m  487.9748m 
 -487.87475m   10.0409m  689.9591m  502.0747m  487.8748m 
 -487.77475m   10.1823m  689.8177m  502.1747m  487.7748m 
 -487.67475m   10.3237m  689.6763m  502.2747m  487.6748m 
 -487.57475m   10.4652m  689.5349m  502.3747m  487.5748m 
 -487.47475m   10.6066m  689.3934m  502.4747m  487.4748m 
 -487.37475m   10.7480m  689.2520m  502.5747m  487.3748m 
 -487.27475m   10.8894m  689.1106m  502.6747m  487.2748m 
 -487.17475m   11.0309m  688.9692m  502.7747m  487.1748m 
 -487.07475m   11.1723m  688.8278m  502.8747m  487.0748m 
 -486.97475m   11.3137m  688.6863m  502.9747m  486.9748m 
 -486.87475m   11.4551m  688.5449m  503.0747m  486.8748m 
 -486.77475m   11.5965m  688.4035m  503.1747m  486.7748m 
 -486.67475m   11.7380m  688.2621m  503.2747m  486.6748m 
 -486.57475m   11.8794m  688.1207m  503.3747m  486.5748m 
 -486.47475m   12.0208m  687.9792m  503.4747m  486.4748m 
 -486.37475m   12.1622m  687.8378m  503.5747m  486.3748m 
 -486.27475m   12.3036m  687.6964m  503.6747m  486.2748m 
 -486.17475m   12.4451m  687.5550m  503.7747m  486.1748m 
 -486.07475m   12.5865m  687.4135m  503.8747m  486.0748m 
 -485.97475m   12.7279m  687.2721m  503.9747m  485.9748m 
 -485.87475m   12.8693m  687.1307m  504.0747m  485.8748m 
 -485.77475m   13.0108m  686.9893m  504.1747m  485.7748m 
 -485.67475m   13.1522m  686.8479m  504.2747m  485.6748m 
 -485.57475m   13.2936m  686.7064m  504.3747m  485.5748m 
 -485.47475m   13.4350m  686.5650m  504.4747m  485.4748m 
 -485.37475m   13.5764m  686.4236m  504.5747m  485.3748m 
 -485.27475m   13.7179m  686.2822m  504.6747m  485.2748m 
 -485.17475m   13.8593m  686.1408m  504.7747m  485.1748m 
 -485.07475m   14.0007m  685.9993m  504.8747m  485.0748m 
 -484.97475m   14.1421m  685.8579m  504.9747m  484.9748m 
 -484.87475m   14.2835m  685.7165m  505.0747m  484.8748m 
 -484.77475m   14.4250m  685.5751m  505.1747m  484.7748m 
 -484.67475m   14.5664m  685.4337m  505.2747m  484.6748m 
 -484.57475m   14.7078m  685.2922m  505.3747m  484.5748m 
 -484.47475m   14.8492m  685.1508m  505.4747m  484.4748m 
 -484.37475m   14.9906m  685.0094m  505.5747m  484.3748m 
 -484.27475m   15.1321m  684.8680m  505.6747m  484.2748m 
 -484.17475m   15.2735m  684.7265m  505.7747m  484.1748m 
 -484.07475m   15.4149m  684.5851m  505.8747m  484.0748m 
 -483.97475m   15.5563m  684.4437m  505.9747m  483.9748m 
 -483.87475m   15.6978m  684.3023m  506.0747m  483.8748m 
 -483.77475m   15.8392m  684.1609m  506.1747m  483.7748m 
 -483.67475m   15.9806m  684.0194m  506.2747m  483.6748m 
 -483.57475m   16.1220m  683.8780m  506.3747m  483.5748m 
 -483.47475m   16.2634m  683.7366m  506.4747m  483.4748m 
 -483.37475m   16.4049m  683.5952m  506.5747m  483.3748m 
 -483.27475m   16.5463m  683.4538m  506.6747m  483.2748m 
 -483.17475m   16.6877m  683.3123m  506.7747m  483.1748m 
 -483.07475m   16.8291m  683.1709m  506.8747m  483.0748m 
 -482.97475m   16.9705m  683.0295m  506.9747m  482.9748m 
 -482.87475m   17.1120m  682.8881m  507.0747m  482.8748m 
 -482.77475m   17.2534m  682.7467m  507.1747m  482.7748m 
 -482.67475m   17.3948m  682.6052m  507.2747m  482.6748m 
 -482.57475m   17.5362m  682.4638m  507.3747m  482.5748m 
 -482.47475m   17.6777m  682.3224m  507.4747m  482.4748m 
 -482.37475m   17.8191m  682.1810m  507.5747m  482.3748m 
 -482.27475m   17.9605m  682.0395m  507.6747m  482.2748m 
 -482.17475m   18.1019m  681.8981m  507.7747m  482.1748m 
 -482.07475m   18.2433m  681.7567m  507.8747m  482.0748m 
 -481.97475m   18.3848m  681.6153m  507.9747m  481.9748m 
 -481.87475m   18.5262m  681.4739m  508.0747m  481.8748m 
 -481.77475m   18.6676m  681.3324m  508.1747m  481.7748m 
 -481.67475m   18.8090m  681.1910m  508.2747m  481.6748m 
 -481.57475m   18.9504m  681.0496m  508.3747m  481.5748m 
 -481.47475m   19.0919m  680.9082m  508.4747m  481.4748m 
 -481.37475m   19.2333m  680.7668m  508.5747m  481.3748m 
 -481.27475m   19.3747m  680.6253m  508.6747m  481.2748m 
 -481.17475m   19.5161m  680.4839m  508.7747m  481.1748m 
 -481.07475m   19.6576m  680.3425m  508.8747m  481.0748m 
 -480.97475m   19.7990m  680.2011m  508.9747m  480.9748m 
 -480.87475m   19.9404m  680.0597m  509.0747m  480.8748m 
 -480.77475m   20.0818m  679.9182m  509.1747m  480.7748m 
 -480.67475m   20.2232m  679.7768m  509.2747m  480.6748m 
 -480.57475m   20.3647m  679.6354m  509.3747m  480.5748m 
 -480.47475m   20.5061m  679.4940m  509.4747m  480.4748m 
 -480.37475m   20.6475m  679.3525m  509.5747m  480.3748m 
 -480.27475m   20.7889m  679.2111m  509.6747m  480.2748m 
 -480.17475m   20.9303m  679.0697m  509.7747m  480.1748m 
 -480.07475m   21.0718m  678.9283m  509.8747m  480.0748m 
 -479.97475m   21.2132m  678.7869m  509.9747m  479.9748m 
 -479.87475m   21.3546m  678.6454m  510.0747m  479.8748m 
 -479.77475m   21.4960m  678.5040m  510.1747m  479.7748m 
 -479.67475m   21.6375m  678.3626m  510.2747m  479.6748m 
 -479.57475m   21.7789m  678.2212m  510.3747m  479.5748m 
 -479.47475m   21.9203m  678.0798m  510.4747m  479.4748m 
 -479.37475m   22.0617m  677.9383m  510.5747m  479.3748m 
 -479.27475m   22.2031m  677.7969m  510.6747m  479.2748m 
 -479.17475m   22.3446m  677.6555m  510.7747m  479.1748m 
 -479.07475m   22.4860m  677.5141m  510.8747m  479.0748m 
 -478.97475m   22.6274m  677.3727m  510.9747m  478.9748m 
 -478.87475m   22.7688m  677.2312m  511.0747m  478.8748m 
 -478.77475m   22.9102m  677.0898m  511.1747m  478.7748m 
 -478.67475m   23.0517m  676.9484m  511.2747m  478.6748m 
 -478.57475m   23.1931m  676.8070m  511.3747m  478.5748m 
 -478.47475m   23.3345m  676.6655m  511.4747m  478.4748m 
 -478.37475m   23.4759m  676.5241m  511.5747m  478.3748m 
 -478.27475m   23.6173m  676.3827m  511.6747m  478.2748m 
 -478.17475m   23.7588m  676.2413m  511.7747m  478.1748m 
 -478.07475m   23.9002m  676.0999m  511.8747m  478.0748m 
 -477.97475m   24.0416m  675.9584m  511.9747m  477.9748m 
 -477.87475m   24.1830m  675.8170m  512.0747m  477.8749m 
 -477.77475m   24.3245m  675.6756m  512.1747m  477.7749m 
 -477.67475m   24.4659m  675.5342m  512.2747m  477.6749m 
 -477.57475m   24.6073m  675.3928m  512.3747m  477.5749m 
 -477.47475m   24.7487m  675.2513m  512.4747m  477.4749m 
 -477.37475m   24.8901m  675.1099m  512.5747m  477.3749m 
 -477.27475m   25.0316m  674.9685m  512.6747m  477.2749m 
 -477.17475m   25.1730m  674.8271m  512.7747m  477.1749m 
 -477.07475m   25.3144m  674.6857m  512.8747m  477.0749m 
 -476.97475m   25.4558m  674.5442m  512.9747m  476.9749m 
 -476.87475m   25.5972m  674.4028m  513.0747m  476.8749m 
 -476.77475m   25.7387m  674.2614m  513.1747m  476.7749m 
 -476.67475m   25.8801m  674.1200m  513.2747m  476.6749m 
 -476.57475m   26.0215m  673.9785m  513.3747m  476.5749m 
 -476.47475m   26.1629m  673.8371m  513.4747m  476.4749m 
 -476.37475m   26.3044m  673.6957m  513.5747m  476.3749m 
 -476.27475m   26.4458m  673.5543m  513.6747m  476.2749m 
 -476.17475m   26.5872m  673.4129m  513.7747m  476.1749m 
 -476.07475m   26.7286m  673.2714m  513.8747m  476.0749m 
 -475.97475m   26.8700m  673.1300m  513.9747m  475.9749m 
 -475.87475m   27.0115m  672.9886m  514.0747m  475.8749m 
 -475.77475m   27.1529m  672.8472m  514.1747m  475.7749m 
 -475.67475m   27.2943m  672.7058m  514.2747m  475.6749m 
 -475.57475m   27.4357m  672.5643m  514.3747m  475.5749m 
 -475.47475m   27.5771m  672.4229m  514.4747m  475.4749m 
 -475.37475m   27.7186m  672.2815m  514.5747m  475.3749m 
 -475.27475m   27.8600m  672.1401m  514.6747m  475.2749m 
 -475.17475m   28.0014m  671.9987m  514.7747m  475.1749m 
 -475.07475m   28.1428m  671.8572m  514.8747m  475.0749m 
 -474.97475m   28.2842m  671.7158m  514.9747m  474.9749m 
 -474.87475m   28.4257m  671.5744m  515.0747m  474.8749m 
 -474.77475m   28.5671m  671.4330m  515.1747m  474.7749m 
 -474.67475m   28.7085m  671.2916m  515.2747m  474.6749m 
 -474.57475m   28.8499m  671.1501m  515.3747m  474.5749m 
 -474.47475m   28.9914m  671.0087m  515.4747m  474.4749m 
 -474.37475m   29.1328m  670.8673m  515.5747m  474.3749m 
 -474.27475m   29.2742m  670.7259m  515.6747m  474.2749m 
 -474.17475m   29.4156m  670.5844m  515.7747m  474.1749m 
 -474.07475m   29.5570m  670.4430m  515.8747m  474.0749m 
 -473.97475m   29.6985m  670.3016m  515.9747m  473.9749m 
 -473.87475m   29.8399m  670.1602m  516.0747m  473.8749m 
 -473.77475m   29.9813m  670.0188m  516.1747m  473.7749m 
 -473.67475m   30.1227m  669.8773m  516.2747m  473.6749m 
 -473.57475m   30.2641m  669.7359m  516.3747m  473.5749m 
 -473.47475m   30.4056m  669.5945m  516.4747m  473.4749m 
 -473.37475m   30.5470m  669.4531m  516.5747m  473.3749m 
 -473.27475m   30.6884m  669.3117m  516.6747m  473.2749m 
 -473.17475m   30.8298m  669.1702m  516.7747m  473.1749m 
 -473.07475m   30.9713m  669.0288m  516.8747m  473.0749m 
 -472.97475m   31.1127m  668.8874m  516.9747m  472.9749m 
 -472.87475m   31.2541m  668.7460m  517.0747m  472.8749m 
 -472.77475m   31.3955m  668.6046m  517.1747m  472.7749m 
 -472.67475m   31.5369m  668.4631m  517.2747m  472.6749m 
 -472.57475m   31.6784m  668.3217m  517.3747m  472.5749m 
 -472.47475m   31.8198m  668.1803m  517.4747m  472.4749m 
 -472.37475m   31.9612m  668.0389m  517.5747m  472.3749m 
 -472.27475m   32.1026m  667.8975m  517.6747m  472.2749m 
 -472.17475m   32.2440m  667.7560m  517.7747m  472.1749m 
 -472.07475m   32.3855m  667.6146m  517.8747m  472.0749m 
 -471.97475m   32.5269m  667.4732m  517.9747m  471.9749m 
 -471.87475m   32.6683m  667.3318m  518.0747m  471.8749m 
 -471.77475m   32.8097m  667.1903m  518.1747m  471.7749m 
 -471.67475m   32.9512m  667.0489m  518.2747m  471.6749m 
 -471.57475m   33.0926m  666.9075m  518.3747m  471.5749m 
 -471.47475m   33.2340m  666.7661m  518.4747m  471.4749m 
 -471.37475m   33.3754m  666.6247m  518.5747m  471.3749m 
 -471.27475m   33.5168m  666.4832m  518.6747m  471.2749m 
 -471.17475m   33.6583m  666.3418m  518.7747m  471.1749m 
 -471.07475m   33.7997m  666.2004m  518.8747m  471.0749m 
 -470.97475m   33.9411m  666.0590m  518.9747m  470.9749m 
 -470.87475m   34.0825m  665.9176m  519.0747m  470.8749m 
 -470.77475m   34.2239m  665.7761m  519.1747m  470.7749m 
 -470.67475m   34.3654m  665.6347m  519.2747m  470.6749m 
 -470.57475m   34.5068m  665.4933m  519.3747m  470.5749m 
 -470.47475m   34.6482m  665.3519m  519.4747m  470.4749m 
 -470.37475m   34.7896m  665.2105m  519.5747m  470.3749m 
 -470.27475m   34.9310m  665.0690m  519.6747m  470.2749m 
 -470.17475m   35.0725m  664.9276m  519.7747m  470.1749m 
 -470.07475m   35.2139m  664.7862m  519.8747m  470.0749m 
 -469.97475m   35.3553m  664.6448m  519.9747m  469.9749m 
 -469.87475m   35.4967m  664.5034m  520.0747m  469.8749m 
 -469.77475m   35.6382m  664.3619m  520.1747m  469.7749m 
 -469.67475m   35.7796m  664.2205m  520.2747m  469.6749m 
 -469.57475m   35.9210m  664.0791m  520.3747m  469.5749m 
 -469.47475m   36.0624m  663.9377m  520.4747m  469.4749m 
 -469.37475m   36.2038m  663.7962m  520.5747m  469.3749m 
 -469.27475m   36.3453m  663.6548m  520.6747m  469.2749m 
 -469.17475m   36.4867m  663.5134m  520.7747m  469.1749m 
 -469.07475m   36.6281m  663.3720m  520.8747m  469.0749m 
 -468.97475m   36.7695m  663.2306m  520.9747m  468.9749m 
 -468.87475m   36.9109m  663.0891m  521.0747m  468.8749m 
 -468.77475m   37.0524m  662.9477m  521.1747m  468.7749m 
 -468.67475m   37.1938m  662.8063m  521.2747m  468.6749m 
 -468.57475m   37.3352m  662.6649m  521.3747m  468.5749m 
 -468.47475m   37.4766m  662.5235m  521.4747m  468.4749m 
 -468.37475m   37.6181m  662.3820m  521.5747m  468.3749m 
 -468.27475m   37.7595m  662.2406m  521.6747m  468.2749m 
 -468.17475m   37.9009m  662.0992m  521.7747m  468.1749m 
 -468.07475m   38.0423m  661.9578m  521.8747m  468.0749m 
 -467.97475m   38.1837m  661.8164m  521.9747m  467.9749m 
 -467.87475m   38.3252m  661.6749m  522.0747m  467.8749m 
 -467.77475m   38.4666m  661.5335m  522.1747m  467.7749m 
 -467.67475m   38.6080m  661.3921m  522.2747m  467.6749m 
 -467.57475m   38.7494m  661.2507m  522.3747m  467.5749m 
 -467.47475m   38.8908m  661.1093m  522.4747m  467.4749m 
 -467.37475m   39.0323m  660.9678m  522.5747m  467.3749m 
 -467.27475m   39.1737m  660.8264m  522.6747m  467.2749m 
 -467.17475m   39.3151m  660.6850m  522.7747m  467.1749m 
 -467.07475m   39.4565m  660.5436m  522.8747m  467.0749m 
 -466.97475m   39.5979m  660.4022m  522.9747m  466.9749m 
 -466.87475m   39.7394m  660.2607m  523.0747m  466.8749m 
 -466.77475m   39.8808m  660.1193m  523.1747m  466.7749m 
 -466.67475m   40.0222m  659.9779m  523.2747m  466.6749m 
 -466.57475m   40.1636m  659.8365m  523.3747m  466.5749m 
 -466.47475m   40.3051m  659.6950m  523.4747m  466.4749m 
 -466.37475m   40.4465m  659.5536m  523.5747m  466.3749m 
 -466.27475m   40.5879m  659.4122m  523.6747m  466.2749m 
 -466.17475m   40.7293m  659.2708m  523.7747m  466.1749m 
 -466.07475m   40.8707m  659.1294m  523.8747m  466.0749m 
 -465.97475m   41.0122m  658.9879m  523.9747m  465.9749m 
 -465.87475m   41.1536m  658.8465m  524.0747m  465.8749m 
 -465.77475m   41.2950m  658.7051m  524.1747m  465.7749m 
 -465.67475m   41.4364m  658.5637m  524.2747m  465.6749m 
 -465.57475m   41.5778m  658.4223m  524.3747m  465.5749m 
 -465.47475m   41.7193m  658.2808m  524.4747m  465.4749m 
 -465.37475m   41.8607m  658.1394m  524.5747m  465.3749m 
 -465.27475m   42.0021m  657.9980m  524.6747m  465.2750m 
 -465.17475m   42.1435m  657.8566m  524.7747m  465.1750m 
 -465.07475m   42.2849m  657.7152m  524.8747m  465.0750m 
 -464.97475m   42.4264m  657.5737m  524.9747m  464.9750m 
 -464.87475m   42.5678m  657.4323m  525.0747m  464.8750m 
 -464.77475m   42.7092m  657.2909m  525.1747m  464.7750m 
 -464.67475m   42.8506m  657.1495m  525.2747m  464.6750m 
 -464.57475m   42.9921m  657.0081m  525.3747m  464.5750m 
 -464.47475m   43.1335m  656.8666m  525.4747m  464.4750m 
 -464.37475m   43.2749m  656.7252m  525.5747m  464.3750m 
 -464.27475m   43.4163m  656.5838m  525.6747m  464.2750m 
 -464.17475m   43.5577m  656.4424m  525.7747m  464.1750m 
 -464.07475m   43.6992m  656.3010m  525.8747m  464.0750m 
 -463.97475m   43.8406m  656.1595m  525.9747m  463.9750m 
 -463.87475m   43.9820m  656.0181m  526.0747m  463.8750m 
 -463.77475m   44.1234m  655.8767m  526.1747m  463.7750m 
 -463.67475m   44.2648m  655.7353m  526.2747m  463.6750m 
 -463.57475m   44.4063m  655.5939m  526.3747m  463.5750m 
 -463.47475m   44.5477m  655.4524m  526.4747m  463.4750m 
 -463.37475m   44.6891m  655.3110m  526.5747m  463.3750m 
 -463.27475m   44.8305m  655.1696m  526.6747m  463.2750m 
 -463.17475m   44.9720m  655.0282m  526.7747m  463.1750m 
 -463.07475m   45.1134m  654.8867m  526.8747m  463.0750m 
 -462.97475m   45.2548m  654.7453m  526.9747m  462.9750m 
 -462.87475m   45.3962m  654.6039m  527.0747m  462.8750m 
 -462.77475m   45.5376m  654.4625m  527.1747m  462.7750m 
 -462.67475m   45.6791m  654.3211m  527.2747m  462.6750m 
 -462.57475m   45.8205m  654.1796m  527.3747m  462.5750m 
 -462.47475m   45.9619m  654.0382m  527.4747m  462.4750m 
 -462.37475m   46.1033m  653.8968m  527.5747m  462.3750m 
 -462.27475m   46.2447m  653.7554m  527.6747m  462.2750m 
 -462.17475m   46.3862m  653.6140m  527.7747m  462.1750m 
 -462.07475m   46.5276m  653.4725m  527.8747m  462.0750m 
 -461.97475m   46.6690m  653.3311m  527.9747m  461.9750m 
 -461.87475m   46.8104m  653.1897m  528.0747m  461.8750m 
 -461.77475m   46.9518m  653.0483m  528.1747m  461.7750m 
 -461.67475m   47.0933m  652.9069m  528.2747m  461.6750m 
 -461.57475m   47.2347m  652.7654m  528.3747m  461.5750m 
 -461.47475m   47.3761m  652.6240m  528.4747m  461.4750m 
 -461.37475m   47.5175m  652.4826m  528.5747m  461.3750m 
 -461.27475m   47.6590m  652.3412m  528.6747m  461.2750m 
 -461.17475m   47.8004m  652.1998m  528.7747m  461.1750m 
 -461.07475m   47.9418m  652.0583m  528.8747m  461.0750m 
 -460.97475m   48.0832m  651.9169m  528.9747m  460.9750m 
 -460.87475m   48.2246m  651.7755m  529.0747m  460.8750m 
 -460.77475m   48.3661m  651.6341m  529.1747m  460.7750m 
 -460.67475m   48.5075m  651.4927m  529.2747m  460.6750m 
 -460.57475m   48.6489m  651.3512m  529.3747m  460.5750m 
 -460.47475m   48.7903m  651.2098m  529.4747m  460.4750m 
 -460.37475m   48.9317m  651.0684m  529.5747m  460.3750m 
 -460.27475m   49.0732m  650.9270m  529.6747m  460.2750m 
 -460.17475m   49.2146m  650.7856m  529.7747m  460.1750m 
 -460.07475m   49.3560m  650.6441m  529.8747m  460.0750m 
 -459.97475m   49.4974m  650.5027m  529.9747m  459.9750m 
 -459.87475m   49.6388m  650.3613m  530.0747m  459.8750m 
 -459.77475m   49.7803m  650.2199m  530.1747m  459.7750m 
 -459.67475m   49.9217m  650.0785m  530.2747m  459.6750m 
 -459.57475m   50.0631m  649.9370m  530.3747m  459.5750m 
 -459.47475m   50.2045m  649.7956m  530.4747m  459.4750m 
 -459.37475m   50.3460m  649.6542m  530.5747m  459.3750m 
 -459.27475m   50.4874m  649.5128m  530.6747m  459.2750m 
 -459.17475m   50.6288m  649.3714m  530.7747m  459.1750m 
 -459.07475m   50.7702m  649.2299m  530.8747m  459.0750m 
 -458.97475m   50.9116m  649.0885m  530.9747m  458.9750m 
 -458.87475m   51.0531m  648.9471m  531.0747m  458.8750m 
 -458.77475m   51.1945m  648.8057m  531.1747m  458.7750m 
 -458.67475m   51.3359m  648.6643m  531.2747m  458.6750m 
 -458.57475m   51.4773m  648.5228m  531.3747m  458.5750m 
 -458.47475m   51.6187m  648.3814m  531.4747m  458.4750m 
 -458.37475m   51.7602m  648.2400m  531.5747m  458.3750m 
 -458.27475m   51.9016m  648.0986m  531.6747m  458.2750m 
 -458.17475m   52.0430m  647.9572m  531.7747m  458.1750m 
 -458.07475m   52.1844m  647.8157m  531.8747m  458.0750m 
 -457.97475m   52.3259m  647.6743m  531.9747m  457.9751m 
 -457.87475m   52.4673m  647.5329m  532.0747m  457.8751m 
 -457.77475m   52.6087m  647.3915m  532.1747m  457.7751m 
 -457.67475m   52.7501m  647.2501m  532.2747m  457.6751m 
 -457.57475m   52.8915m  647.1086m  532.3747m  457.5751m 
 -457.47475m   53.0330m  646.9672m  532.4747m  457.4751m 
 -457.37475m   53.1744m  646.8258m  532.5747m  457.3751m 
 -457.27475m   53.3158m  646.6844m  532.6747m  457.2751m 
 -457.17475m   53.4572m  646.5430m  532.7747m  457.1751m 
 -457.07475m   53.5986m  646.4015m  532.8747m  457.0751m 
 -456.97475m   53.7401m  646.2601m  532.9747m  456.9751m 
 -456.87475m   53.8815m  646.1187m  533.0747m  456.8751m 
 -456.77475m   54.0229m  645.9773m  533.1747m  456.7751m 
 -456.67475m   54.1643m  645.8359m  533.2747m  456.6751m 
 -456.57475m   54.3057m  645.6944m  533.3747m  456.5751m 
 -456.47475m   54.4472m  645.5530m  533.4747m  456.4751m 
 -456.37475m   54.5886m  645.4116m  533.5747m  456.3751m 
 -456.27475m   54.7300m  645.2702m  533.6747m  456.2751m 
 -456.17475m   54.8714m  645.1288m  533.7747m  456.1751m 
 -456.07475m   55.0129m  644.9873m  533.8747m  456.0751m 
 -455.97475m   55.1543m  644.8459m  533.9747m  455.9751m 
 -455.87475m   55.2957m  644.7045m  534.0747m  455.8751m 
 -455.77475m   55.4371m  644.5631m  534.1747m  455.7751m 
 -455.67475m   55.5785m  644.4217m  534.2747m  455.6751m 
 -455.57475m   55.7200m  644.2802m  534.3747m  455.5751m 
 -455.47475m   55.8614m  644.1388m  534.4747m  455.4751m 
 -455.37475m   56.0028m  643.9974m  534.5747m  455.3751m 
 -455.27475m   56.1442m  643.8560m  534.6747m  455.2751m 
 -455.17475m   56.2856m  643.7146m  534.7747m  455.1751m 
 -455.07475m   56.4271m  643.5731m  534.8747m  455.0751m 
 -454.97475m   56.5685m  643.4317m  534.9747m  454.9751m 
 -454.87475m   56.7099m  643.2903m  535.0747m  454.8751m 
 -454.77475m   56.8513m  643.1489m  535.1747m  454.7751m 
 -454.67475m   56.9927m  643.0075m  535.2747m  454.6751m 
 -454.57475m   57.1342m  642.8660m  535.3747m  454.5751m 
 -454.47475m   57.2756m  642.7246m  535.4747m  454.4751m 
 -454.37475m   57.4170m  642.5832m  535.5747m  454.3751m 
 -454.27475m   57.5584m  642.4418m  535.6747m  454.2751m 
 -454.17475m   57.6999m  642.3004m  535.7747m  454.1751m 
 -454.07475m   57.8413m  642.1589m  535.8747m  454.0751m 
 -453.97475m   57.9827m  642.0175m  535.9747m  453.9751m 
 -453.87475m   58.1241m  641.8761m  536.0747m  453.8751m 
 -453.77475m   58.2655m  641.7347m  536.1747m  453.7751m 
 -453.67475m   58.4070m  641.5933m  536.2747m  453.6751m 
 -453.57475m   58.5484m  641.4518m  536.3747m  453.5751m 
 -453.47475m   58.6898m  641.3104m  536.4747m  453.4751m 
 -453.37475m   58.8312m  641.1690m  536.5747m  453.3751m 
 -453.27475m   58.9726m  641.0276m  536.6747m  453.2751m 
 -453.17475m   59.1141m  640.8862m  536.7747m  453.1751m 
 -453.07475m   59.2555m  640.7447m  536.8747m  453.0751m 
 -452.97475m   59.3969m  640.6033m  536.9747m  452.9752m 
 -452.87475m   59.5383m  640.4619m  537.0747m  452.8752m 
 -452.77475m   59.6797m  640.3205m  537.1747m  452.7752m 
 -452.67475m   59.8212m  640.1791m  537.2746m  452.6752m 
 -452.57475m   59.9626m  640.0376m  537.3746m  452.5752m 
 -452.47475m   60.1040m  639.8962m  537.4746m  452.4752m 
 -452.37475m   60.2454m  639.7548m  537.5746m  452.3752m 
 -452.27475m   60.3868m  639.6134m  537.6746m  452.2752m 
 -452.17475m   60.5283m  639.4720m  537.7746m  452.1752m 
 -452.07475m   60.6697m  639.3305m  537.8746m  452.0752m 
 -451.97475m   60.8111m  639.1891m  537.9746m  451.9752m 
 -451.87475m   60.9525m  639.0477m  538.0746m  451.8752m 
 -451.77475m   61.0940m  638.9063m  538.1746m  451.7752m 
 -451.67475m   61.2354m  638.7649m  538.2746m  451.6752m 
 -451.57475m   61.3768m  638.6234m  538.3746m  451.5752m 
 -451.47475m   61.5182m  638.4820m  538.4746m  451.4752m 
 -451.37475m   61.6596m  638.3406m  538.5746m  451.3752m 
 -451.27475m   61.8011m  638.1992m  538.6746m  451.2752m 
 -451.17475m   61.9425m  638.0578m  538.7746m  451.1752m 
 -451.07475m   62.0839m  637.9163m  538.8746m  451.0752m 
 -450.97475m   62.2253m  637.7749m  538.9746m  450.9752m 
 -450.87475m   62.3667m  637.6335m  539.0746m  450.8752m 
 -450.77475m   62.5082m  637.4921m  539.1746m  450.7752m 
 -450.67475m   62.6496m  637.3507m  539.2746m  450.6752m 
 -450.57475m   62.7910m  637.2092m  539.3746m  450.5752m 
 -450.47475m   62.9324m  637.0678m  539.4746m  450.4752m 
 -450.37475m   63.0738m  636.9264m  539.5746m  450.3752m 
 -450.27475m   63.2153m  636.7850m  539.6746m  450.2752m 
 -450.17475m   63.3567m  636.6436m  539.7746m  450.1752m 
 -450.07475m   63.4981m  636.5021m  539.8746m  450.0752m 
 -449.97475m   63.6395m  636.3607m  539.9746m  449.9752m 
 -449.87475m   63.7810m  636.2193m  540.0746m  449.8752m 
 -449.77475m   63.9224m  636.0779m  540.1746m  449.7752m 
 -449.67475m   64.0638m  635.9365m  540.2746m  449.6752m 
 -449.57475m   64.2052m  635.7951m  540.3746m  449.5752m 
 -449.47475m   64.3466m  635.6536m  540.4746m  449.4752m 
 -449.37475m   64.4881m  635.5122m  540.5746m  449.3752m 
 -449.27475m   64.6295m  635.3708m  540.6746m  449.2752m 
 -449.17475m   64.7709m  635.2294m  540.7746m  449.1752m 
 -449.07475m   64.9123m  635.0880m  540.8746m  449.0753m 
 -448.97475m   65.0537m  634.9465m  540.9746m  448.9753m 
 -448.87475m   65.1952m  634.8051m  541.0746m  448.8753m 
 -448.77475m   65.3366m  634.6637m  541.1746m  448.7753m 
 -448.67475m   65.4780m  634.5223m  541.2746m  448.6753m 
 -448.57475m   65.6194m  634.3809m  541.3746m  448.5753m 
 -448.47475m   65.7608m  634.2394m  541.4746m  448.4753m 
 -448.37475m   65.9023m  634.0980m  541.5746m  448.3753m 
 -448.27475m   66.0437m  633.9566m  541.6746m  448.2753m 
 -448.17475m   66.1851m  633.8152m  541.7746m  448.1753m 
 -448.07475m   66.3265m  633.6738m  541.8746m  448.0753m 
 -447.97475m   66.4679m  633.5323m  541.9746m  447.9753m 
 -447.87475m   66.6094m  633.3909m  542.0746m  447.8753m 
 -447.77475m   66.7508m  633.2495m  542.1746m  447.7753m 
 -447.67475m   66.8922m  633.1081m  542.2746m  447.6753m 
 -447.57475m   67.0336m  632.9667m  542.3746m  447.5753m 
 -447.47475m   67.1751m  632.8252m  542.4746m  447.4753m 
 -447.37475m   67.3165m  632.6838m  542.5746m  447.3753m 
 -447.27475m   67.4579m  632.5424m  542.6746m  447.2753m 
 -447.17475m   67.5993m  632.4010m  542.7746m  447.1753m 
 -447.07475m   67.7407m  632.2596m  542.8746m  447.0753m 
 -446.97475m   67.8822m  632.1182m  542.9746m  446.9753m 
 -446.87475m   68.0236m  631.9767m  543.0746m  446.8753m 
 -446.77475m   68.1650m  631.8353m  543.1746m  446.7753m 
 -446.67475m   68.3064m  631.6939m  543.2746m  446.6753m 
 -446.57475m   68.4478m  631.5525m  543.3746m  446.5753m 
 -446.47475m   68.5893m  631.4111m  543.4746m  446.4753m 
 -446.37475m   68.7307m  631.2696m  543.5746m  446.3753m 
 -446.27475m   68.8721m  631.1282m  543.6746m  446.2753m 
 -446.17475m   69.0135m  630.9868m  543.7746m  446.1753m 
 -446.07475m   69.1549m  630.8454m  543.8746m  446.0753m 
 -445.97475m   69.2964m  630.7040m  543.9746m  445.9753m 
 -445.87475m   69.4378m  630.5625m  544.0746m  445.8754m 
 -445.77475m   69.5792m  630.4211m  544.1746m  445.7754m 
 -445.67475m   69.7206m  630.2797m  544.2746m  445.6754m 
 -445.57475m   69.8620m  630.1383m  544.3746m  445.5754m 
 -445.47475m   70.0035m  629.9969m  544.4746m  445.4754m 
 -445.37475m   70.1449m  629.8554m  544.5746m  445.3754m 
 -445.27475m   70.2863m  629.7140m  544.6746m  445.2754m 
 -445.17475m   70.4277m  629.5726m  544.7746m  445.1754m 
 -445.07475m   70.5692m  629.4312m  544.8746m  445.0754m 
 -444.97475m   70.7106m  629.2898m  544.9746m  444.9754m 
 -444.87475m   70.8520m  629.1484m  545.0746m  444.8754m 
 -444.77475m   70.9934m  629.0069m  545.1746m  444.7754m 
 -444.67475m   71.1348m  628.8655m  545.2746m  444.6754m 
 -444.57475m   71.2763m  628.7241m  545.3746m  444.5754m 
 -444.47475m   71.4177m  628.5827m  545.4746m  444.4754m 
 -444.37475m   71.5591m  628.4413m  545.5746m  444.3754m 
 -444.27475m   71.7005m  628.2998m  545.6746m  444.2754m 
 -444.17475m   71.8419m  628.1584m  545.7746m  444.1754m 
 -444.07475m   71.9834m  628.0170m  545.8746m  444.0754m 
 -443.97475m   72.1248m  627.8756m  545.9746m  443.9754m 
 -443.87475m   72.2662m  627.7342m  546.0746m  443.8754m 
 -443.77475m   72.4076m  627.5927m  546.1746m  443.7754m 
 -443.67475m   72.5490m  627.4513m  546.2746m  443.6754m 
 -443.57475m   72.6905m  627.3099m  546.3746m  443.5754m 
 -443.47475m   72.8319m  627.1685m  546.4746m  443.4754m 
 -443.37475m   72.9733m  627.0271m  546.5746m  443.3754m 
 -443.27475m   73.1147m  626.8857m  546.6746m  443.2754m 
 -443.17475m   73.2561m  626.7442m  546.7746m  443.1755m 
 -443.07475m   73.3976m  626.6028m  546.8746m  443.0755m 
 -442.97475m   73.5390m  626.4614m  546.9746m  442.9755m 
 -442.87475m   73.6804m  626.3200m  547.0746m  442.8755m 
 -442.77475m   73.8218m  626.1786m  547.1746m  442.7755m 
 -442.67475m   73.9633m  626.0371m  547.2746m  442.6755m 
 -442.57475m   74.1047m  625.8957m  547.3746m  442.5755m 
 -442.47475m   74.2461m  625.7543m  547.4746m  442.4755m 
 -442.37475m   74.3875m  625.6129m  547.5746m  442.3755m 
 -442.27475m   74.5289m  625.4715m  547.6746m  442.2755m 
 -442.17475m   74.6704m  625.3301m  547.7746m  442.1755m 
 -442.07475m   74.8118m  625.1886m  547.8746m  442.0755m 
 -441.97475m   74.9532m  625.0472m  547.9746m  441.9755m 
 -441.87475m   75.0946m  624.9058m  548.0746m  441.8755m 
 -441.77475m   75.2360m  624.7644m  548.1746m  441.7755m 
 -441.67475m   75.3775m  624.6230m  548.2746m  441.6755m 
 -441.57475m   75.5189m  624.4815m  548.3746m  441.5755m 
 -441.47475m   75.6603m  624.3401m  548.4746m  441.4755m 
 -441.37475m   75.8017m  624.1987m  548.5746m  441.3755m 
 -441.27475m   75.9431m  624.0573m  548.6746m  441.2755m 
 -441.17475m   76.0846m  623.9159m  548.7746m  441.1755m 
 -441.07475m   76.2260m  623.7745m  548.8746m  441.0755m 
 -440.97475m   76.3674m  623.6330m  548.9746m  440.9755m 
 -440.87475m   76.5088m  623.4916m  549.0746m  440.8756m 
 -440.77475m   76.6502m  623.3502m  549.1746m  440.7756m 
 -440.67475m   76.7917m  623.2088m  549.2746m  440.6756m 
 -440.57475m   76.9331m  623.0674m  549.3746m  440.5756m 
 -440.47475m   77.0745m  622.9259m  549.4746m  440.4756m 
 -440.37475m   77.2159m  622.7845m  549.5746m  440.3756m 
 -440.27475m   77.3573m  622.6431m  549.6746m  440.2756m 
 -440.17475m   77.4988m  622.5017m  549.7746m  440.1756m 
 -440.07475m   77.6402m  622.3603m  549.8746m  440.0756m 
 -439.97475m   77.7816m  622.2189m  549.9746m  439.9756m 
 -439.87475m   77.9230m  622.0774m  550.0746m  439.8756m 
 -439.77475m   78.0644m  621.9360m  550.1745m  439.7756m 
 -439.67475m   78.2059m  621.7946m  550.2745m  439.6756m 
 -439.57475m   78.3473m  621.6532m  550.3745m  439.5756m 
 -439.47475m   78.4887m  621.5118m  550.4745m  439.4756m 
 -439.37475m   78.6301m  621.3703m  550.5745m  439.3756m 
 -439.27475m   78.7716m  621.2289m  550.6745m  439.2756m 
 -439.17475m   78.9130m  621.0875m  550.7745m  439.1756m 
 -439.07475m   79.0544m  620.9461m  550.8745m  439.0756m 
 -438.97475m   79.1958m  620.8047m  550.9745m  438.9756m 
 -438.87475m   79.3372m  620.6633m  551.0745m  438.8756m 
 -438.77475m   79.4787m  620.5218m  551.1745m  438.7757m 
 -438.67475m   79.6201m  620.3804m  551.2745m  438.6757m 
 -438.57475m   79.7615m  620.2390m  551.3745m  438.5757m 
 -438.47475m   79.9029m  620.0976m  551.4745m  438.4757m 
 -438.37475m   80.0443m  619.9562m  551.5745m  438.3757m 
 -438.27475m   80.1858m  619.8148m  551.6745m  438.2757m 
 -438.17475m   80.3272m  619.6733m  551.7745m  438.1757m 
 -438.07475m   80.4686m  619.5319m  551.8745m  438.0757m 
 -437.97475m   80.6100m  619.3905m  551.9745m  437.9757m 
 -437.87475m   80.7514m  619.2491m  552.0745m  437.8757m 
 -437.77475m   80.8929m  619.1077m  552.1745m  437.7757m 
 -437.67475m   81.0343m  618.9662m  552.2745m  437.6757m 
 -437.57475m   81.1757m  618.8248m  552.3745m  437.5757m 
 -437.47475m   81.3171m  618.6834m  552.4745m  437.4757m 
 -437.37475m   81.4585m  618.5420m  552.5745m  437.3757m 
 -437.27475m   81.6000m  618.4006m  552.6745m  437.2757m 
 -437.17475m   81.7414m  618.2592m  552.7745m  437.1757m 
 -437.07475m   81.8828m  618.1177m  552.8745m  437.0757m 
 -436.97475m   82.0242m  617.9763m  552.9745m  436.9758m 
 -436.87475m   82.1656m  617.8349m  553.0745m  436.8758m 
 -436.77475m   82.3071m  617.6935m  553.1745m  436.7758m 
 -436.67475m   82.4485m  617.5521m  553.2745m  436.6758m 
 -436.57475m   82.5899m  617.4107m  553.3745m  436.5758m 
 -436.47475m   82.7313m  617.2692m  553.4745m  436.4758m 
 -436.37475m   82.8727m  617.1278m  553.5745m  436.3758m 
 -436.27475m   83.0142m  616.9864m  553.6745m  436.2758m 
 -436.17475m   83.1556m  616.8450m  553.7745m  436.1758m 
 -436.07475m   83.2970m  616.7036m  553.8745m  436.0758m 
 -435.97475m   83.4384m  616.5622m  553.9745m  435.9758m 
 -435.87475m   83.5798m  616.4207m  554.0745m  435.8758m 
 -435.77475m   83.7213m  616.2793m  554.1745m  435.7758m 
 -435.67475m   83.8627m  616.1379m  554.2745m  435.6758m 
 -435.57475m   84.0041m  615.9965m  554.3745m  435.5758m 
 -435.47475m   84.1455m  615.8551m  554.4745m  435.4758m 
 -435.37475m   84.2869m  615.7137m  554.5745m  435.3759m 
 -435.27475m   84.4284m  615.5722m  554.6745m  435.2759m 
 -435.17475m   84.5698m  615.4308m  554.7745m  435.1759m 
 -435.07475m   84.7112m  615.2894m  554.8745m  435.0759m 
 -434.97475m   84.8526m  615.1480m  554.9745m  434.9759m 
 -434.87475m   84.9941m  615.0066m  555.0745m  434.8759m 
 -434.77475m   85.1355m  614.8652m  555.1745m  434.7759m 
 -434.67475m   85.2769m  614.7237m  555.2745m  434.6759m 
 -434.57475m   85.4183m  614.5823m  555.3745m  434.5759m 
 -434.47475m   85.5597m  614.4409m  555.4745m  434.4759m 
 -434.37475m   85.7012m  614.2995m  555.5745m  434.3759m 
 -434.27475m   85.8426m  614.1581m  555.6745m  434.2759m 
 -434.17475m   85.9840m  614.0167m  555.7745m  434.1759m 
 -434.07475m   86.1254m  613.8752m  555.8745m  434.0759m 
 -433.97475m   86.2668m  613.7338m  555.9745m  433.9759m 
 -433.87475m   86.4083m  613.5924m  556.0745m  433.8760m 
 -433.77475m   86.5497m  613.4510m  556.1745m  433.7760m 
 -433.67475m   86.6911m  613.3096m  556.2745m  433.6760m 
 -433.57475m   86.8325m  613.1682m  556.3745m  433.5760m 
 -433.47475m   86.9739m  613.0267m  556.4745m  433.4760m 
 -433.37475m   87.1154m  612.8853m  556.5745m  433.3760m 
 -433.27475m   87.2568m  612.7439m  556.6745m  433.2760m 
 -433.17475m   87.3982m  612.6025m  556.7745m  433.1760m 
 -433.07475m   87.5396m  612.4611m  556.8745m  433.0760m 
 -432.97475m   87.6810m  612.3197m  556.9745m  432.9760m 
 -432.87475m   87.8225m  612.1782m  557.0745m  432.8760m 
 -432.77475m   87.9639m  612.0368m  557.1745m  432.7760m 
 -432.67475m   88.1053m  611.8954m  557.2745m  432.6760m 
 -432.57475m   88.2467m  611.7540m  557.3745m  432.5760m 
 -432.47475m   88.3881m  611.6126m  557.4744m  432.4761m 
 -432.37475m   88.5296m  611.4712m  557.5744m  432.3761m 
 -432.27475m   88.6710m  611.3297m  557.6744m  432.2761m 
 -432.17475m   88.8124m  611.1883m  557.7744m  432.1761m 
 -432.07475m   88.9538m  611.0469m  557.8744m  432.0761m 
 -431.97475m   89.0952m  610.9055m  557.9744m  431.9761m 
 -431.87475m   89.2367m  610.7641m  558.0744m  431.8761m 
 -431.77475m   89.3781m  610.6227m  558.1744m  431.7761m 
 -431.67475m   89.5195m  610.4812m  558.2744m  431.6761m 
 -431.57475m   89.6609m  610.3398m  558.3744m  431.5761m 
 -431.47475m   89.8023m  610.1984m  558.4744m  431.4761m 
 -431.37475m   89.9438m  610.0570m  558.5744m  431.3761m 
 -431.27475m   90.0852m  609.9156m  558.6744m  431.2761m 
 -431.17475m   90.2266m  609.7742m  558.7744m  431.1762m 
 -431.07475m   90.3680m  609.6328m  558.8744m  431.0762m 
 -430.97475m   90.5094m  609.4913m  558.9744m  430.9762m 
 -430.87475m   90.6509m  609.3499m  559.0744m  430.8762m 
 -430.77475m   90.7923m  609.2085m  559.1744m  430.7762m 
 -430.67475m   90.9337m  609.0671m  559.2744m  430.6762m 
 -430.57475m   91.0751m  608.9257m  559.3744m  430.5762m 
 -430.47475m   91.2165m  608.7843m  559.4744m  430.4762m 
 -430.37475m   91.3580m  608.6428m  559.5744m  430.3762m 
 -430.27475m   91.4994m  608.5014m  559.6744m  430.2762m 
 -430.17475m   91.6408m  608.3600m  559.7744m  430.1762m 
 -430.07475m   91.7822m  608.2186m  559.8744m  430.0762m 
 -429.97475m   91.9236m  608.0772m  559.9744m  429.9763m 
 -429.87475m   92.0651m  607.9358m  560.0744m  429.8763m 
 -429.77475m   92.2065m  607.7944m  560.1744m  429.7763m 
 -429.67475m   92.3479m  607.6529m  560.2744m  429.6763m 
 -429.57475m   92.4893m  607.5115m  560.3744m  429.5763m 
 -429.47475m   92.6307m  607.3701m  560.4744m  429.4763m 
 -429.37475m   92.7722m  607.2287m  560.5744m  429.3763m 
 -429.27475m   92.9136m  607.0873m  560.6744m  429.2763m 
 -429.17475m   93.0550m  606.9459m  560.7744m  429.1763m 
 -429.07475m   93.1964m  606.8045m  560.8744m  429.0763m 
 -428.97475m   93.3378m  606.6630m  560.9744m  428.9763m 
 -428.87475m   93.4793m  606.5216m  561.0744m  428.8764m 
 -428.77475m   93.6207m  606.3802m  561.1744m  428.7764m 
 -428.67475m   93.7621m  606.2388m  561.2744m  428.6764m 
 -428.57475m   93.9035m  606.0974m  561.3744m  428.5764m 
 -428.47475m   94.0449m  605.9560m  561.4744m  428.4764m 
 -428.37475m   94.1864m  605.8145m  561.5744m  428.3764m 
 -428.27475m   94.3278m  605.6731m  561.6744m  428.2764m 
 -428.17475m   94.4692m  605.5317m  561.7744m  428.1764m 
 -428.07475m   94.6106m  605.3903m  561.8744m  428.0764m 
 -427.97475m   94.7520m  605.2489m  561.9744m  427.9764m 
 -427.87475m   94.8935m  605.1075m  562.0744m  427.8765m 
 -427.77475m   95.0349m  604.9661m  562.1744m  427.7765m 
 -427.67475m   95.1763m  604.8246m  562.2744m  427.6765m 
 -427.57475m   95.3177m  604.6832m  562.3744m  427.5765m 
 -427.47475m   95.4591m  604.5418m  562.4744m  427.4765m 
 -427.37475m   95.6006m  604.4004m  562.5744m  427.3765m 
 -427.27475m   95.7420m  604.2590m  562.6743m  427.2765m 
 -427.17475m   95.8834m  604.1176m  562.7743m  427.1765m 
 -427.07475m   96.0248m  603.9762m  562.8743m  427.0765m 
 -426.97475m   96.1662m  603.8348m  562.9743m  426.9765m 
 -426.87475m   96.3077m  603.6933m  563.0743m  426.8766m 
 -426.77475m   96.4491m  603.5519m  563.1743m  426.7766m 
 -426.67475m   96.5905m  603.4105m  563.2743m  426.6766m 
 -426.57475m   96.7319m  603.2691m  563.3743m  426.5766m 
 -426.47475m   96.8733m  603.1277m  563.4743m  426.4766m 
 -426.37475m   97.0148m  602.9863m  563.5743m  426.3766m 
 -426.27475m   97.1562m  602.8449m  563.6743m  426.2766m 
 -426.17475m   97.2976m  602.7034m  563.7743m  426.1766m 
 -426.07475m   97.4390m  602.5620m  563.8743m  426.0766m 
 -425.97475m   97.5804m  602.4206m  563.9743m  425.9767m 
 -425.87475m   97.7219m  602.2792m  564.0743m  425.8767m 
 -425.77475m   97.8633m  602.1378m  564.1743m  425.7767m 
 -425.67475m   98.0047m  601.9964m  564.2743m  425.6767m 
 -425.57475m   98.1461m  601.8550m  564.3743m  425.5767m 
 -425.47475m   98.2875m  601.7135m  564.4743m  425.4767m 
 -425.37475m   98.4290m  601.5721m  564.5743m  425.3767m 
 -425.27475m   98.5704m  601.4307m  564.6743m  425.2767m 
 -425.17475m   98.7118m  601.2893m  564.7743m  425.1767m 
 -425.07475m   98.8532m  601.1479m  564.8743m  425.0768m 
 -424.97475m   98.9946m  601.0065m  564.9743m  424.9768m 
 -424.87475m   99.1360m  600.8651m  565.0743m  424.8768m 
 -424.77475m   99.2775m  600.7237m  565.1743m  424.7768m 
 -424.67475m   99.4189m  600.5822m  565.2743m  424.6768m 
 -424.57475m   99.5603m  600.4408m  565.3743m  424.5768m 
 -424.47475m   99.7017m  600.2994m  565.4743m  424.4768m 
 -424.37475m   99.8431m  600.1580m  565.5743m  424.3768m 
 -424.27475m   99.9846m  600.0166m  565.6743m  424.2769m 
 -424.17475m  100.1260m  599.8752m  565.7743m  424.1769m 
 -424.07475m  100.2674m  599.7338m  565.8743m  424.0769m 
 -423.97475m  100.4088m  599.5924m  565.9743m  423.9769m 
 -423.87475m  100.5502m  599.4509m  566.0743m  423.8769m 
 -423.77475m  100.6917m  599.3095m  566.1743m  423.7769m 
 -423.67475m  100.8331m  599.1681m  566.2743m  423.6769m 
 -423.57475m  100.9745m  599.0267m  566.3743m  423.5769m 
 -423.47475m  101.1159m  598.8853m  566.4743m  423.4770m 
 -423.37475m  101.2573m  598.7439m  566.5742m  423.3770m 
 -423.27475m  101.3988m  598.6025m  566.6742m  423.2770m 
 -423.17475m  101.5402m  598.4611m  566.7742m  423.1770m 
 -423.07475m  101.6816m  598.3196m  566.8742m  423.0770m 
 -422.97475m  101.8230m  598.1782m  566.9742m  422.9770m 
 -422.87475m  101.9644m  598.0368m  567.0742m  422.8770m 
 -422.77475m  102.1059m  597.8954m  567.1742m  422.7770m 
 -422.67475m  102.2473m  597.7540m  567.2742m  422.6771m 
 -422.57475m  102.3887m  597.6126m  567.3742m  422.5771m 
 -422.47475m  102.5301m  597.4712m  567.4742m  422.4771m 
 -422.37475m  102.6715m  597.3298m  567.5742m  422.3771m 
 -422.27475m  102.8130m  597.1883m  567.6742m  422.2771m 
 -422.17475m  102.9544m  597.0469m  567.7742m  422.1771m 
 -422.07475m  103.0958m  596.9055m  567.8742m  422.0771m 
 -421.97475m  103.2372m  596.7641m  567.9742m  421.9772m 
 -421.87475m  103.3786m  596.6227m  568.0742m  421.8772m 
 -421.77475m  103.5200m  596.4813m  568.1742m  421.7772m 
 -421.67475m  103.6615m  596.3399m  568.2742m  421.6772m 
 -421.57475m  103.8029m  596.1985m  568.3742m  421.5772m 
 -421.47475m  103.9443m  596.0571m  568.4742m  421.4772m 
 -421.37475m  104.0857m  595.9156m  568.5742m  421.3772m 
 -421.27475m  104.2271m  595.7742m  568.6742m  421.2773m 
 -421.17475m  104.3686m  595.6328m  568.7742m  421.1773m 
 -421.07475m  104.5100m  595.4914m  568.8742m  421.0773m 
 -420.97475m  104.6514m  595.3500m  568.9742m  420.9773m 
 -420.87475m  104.7928m  595.2086m  569.0742m  420.8773m 
 -420.77475m  104.9342m  595.0672m  569.1742m  420.7773m 
 -420.67475m  105.0757m  594.9258m  569.2742m  420.6773m 
 -420.57475m  105.2171m  594.7844m  569.3742m  420.5774m 
 -420.47475m  105.3585m  594.6430m  569.4742m  420.4774m 
 -420.37475m  105.4999m  594.5015m  569.5742m  420.3774m 
 -420.27475m  105.6413m  594.3601m  569.6742m  420.2774m 
 -420.17475m  105.7828m  594.2187m  569.7742m  420.1774m 
 -420.07475m  105.9242m  594.0773m  569.8741m  420.0774m 
 -419.97475m  106.0656m  593.9359m  569.9741m  419.9775m 
 -419.87475m  106.2070m  593.7945m  570.0741m  419.8775m 
 -419.77475m  106.3484m  593.6531m  570.1741m  419.7775m 
 -419.67475m  106.4898m  593.5117m  570.2741m  419.6775m 
 -419.57475m  106.6313m  593.3703m  570.3741m  419.5775m 
 -419.47475m  106.7727m  593.2288m  570.4741m  419.4775m 
 -419.37475m  106.9141m  593.0874m  570.5741m  419.3776m 
 -419.27475m  107.0555m  592.9460m  570.6741m  419.2776m 
 -419.17475m  107.1969m  592.8046m  570.7741m  419.1776m 
 -419.07475m  107.3384m  592.6632m  570.8741m  419.0776m 
 -418.97475m  107.4798m  592.5218m  570.9741m  418.9776m 
 -418.87475m  107.6212m  592.3804m  571.0741m  418.8776m 
 -418.77475m  107.7626m  592.2390m  571.1741m  418.7777m 
 -418.67475m  107.9040m  592.0976m  571.2741m  418.6777m 
 -418.57475m  108.0455m  591.9562m  571.3741m  418.5777m 
 -418.47475m  108.1869m  591.8148m  571.4741m  418.4777m 
 -418.37475m  108.3283m  591.6733m  571.5741m  418.3777m 
 -418.27475m  108.4697m  591.5319m  571.6741m  418.2777m 
 -418.17475m  108.6111m  591.3905m  571.7741m  418.1778m 
 -418.07475m  108.7525m  591.2491m  571.8741m  418.0778m 
 -417.97475m  108.8940m  591.1077m  571.9741m  417.9778m 
 -417.87475m  109.0354m  590.9663m  572.0741m  417.8778m 
 -417.77475m  109.1768m  590.8249m  572.1741m  417.7778m 
 -417.67475m  109.3182m  590.6835m  572.2741m  417.6778m 
 -417.57475m  109.4596m  590.5421m  572.3741m  417.5779m 
 -417.47475m  109.6011m  590.4007m  572.4741m  417.4779m 
 -417.37475m  109.7425m  590.2593m  572.5740m  417.3779m 
 -417.27475m  109.8839m  590.1179m  572.6740m  417.2779m 
 -417.17475m  110.0253m  589.9764m  572.7740m  417.1779m 
 -417.07475m  110.1667m  589.8350m  572.8740m  417.0780m 
 -416.97475m  110.3082m  589.6936m  572.9740m  416.9780m 
 -416.87475m  110.4496m  589.5522m  573.0740m  416.8780m 
 -416.77475m  110.5910m  589.4108m  573.1740m  416.7780m 
 -416.67475m  110.7324m  589.2694m  573.2740m  416.6780m 
 -416.57475m  110.8738m  589.1280m  573.3740m  416.5781m 
 -416.47475m  111.0152m  588.9866m  573.4740m  416.4781m 
 -416.37475m  111.1567m  588.8452m  573.5740m  416.3781m 
 -416.27475m  111.2981m  588.7038m  573.6740m  416.2781m 
 -416.17475m  111.4395m  588.5624m  573.7740m  416.1781m 
 -416.07475m  111.5809m  588.4210m  573.8740m  416.0782m 
 -415.97475m  111.7223m  588.2796m  573.9740m  415.9782m 
 -415.87475m  111.8638m  588.1381m  574.0740m  415.8782m 
 -415.77475m  112.0052m  587.9967m  574.1740m  415.7782m 
 -415.67475m  112.1466m  587.8553m  574.2740m  415.6782m 
 -415.57475m  112.2880m  587.7139m  574.3740m  415.5783m 
 -415.47475m  112.4294m  587.5725m  574.4740m  415.4783m 
 -415.37475m  112.5708m  587.4311m  574.5740m  415.3783m 
 -415.27475m  112.7123m  587.2897m  574.6740m  415.2783m 
 -415.17475m  112.8537m  587.1483m  574.7740m  415.1783m 
 -415.07475m  112.9951m  587.0069m  574.8739m  415.0784m 
 -414.97475m  113.1365m  586.8655m  574.9739m  414.9784m 
 -414.87475m  113.2779m  586.7241m  575.0739m  414.8784m 
 -414.77475m  113.4194m  586.5827m  575.1739m  414.7784m 
 -414.67475m  113.5608m  586.4413m  575.2739m  414.6784m 
 -414.57475m  113.7022m  586.2999m  575.3739m  414.5785m 
 -414.47475m  113.8436m  586.1585m  575.4739m  414.4785m 
 -414.37475m  113.9850m  586.0171m  575.5739m  414.3785m 
 -414.27475m  114.1264m  585.8756m  575.6739m  414.2785m 
 -414.17475m  114.2679m  585.7342m  575.7739m  414.1786m 
 -414.07475m  114.4093m  585.5928m  575.8739m  414.0786m 
 -413.97475m  114.5507m  585.4514m  575.9739m  413.9786m 
 -413.87475m  114.6921m  585.3100m  576.0739m  413.8786m 
 -413.77475m  114.8335m  585.1686m  576.1739m  413.7786m 
 -413.67475m  114.9750m  585.0272m  576.2739m  413.6787m 
 -413.57475m  115.1164m  584.8858m  576.3739m  413.5787m 
 -413.47475m  115.2578m  584.7444m  576.4739m  413.4787m 
 -413.37475m  115.3992m  584.6030m  576.5739m  413.3787m 
 -413.27475m  115.5406m  584.4616m  576.6739m  413.2788m 
 -413.17475m  115.6820m  584.3202m  576.7739m  413.1788m 
 -413.07475m  115.8235m  584.1788m  576.8739m  413.0788m 
 -412.97475m  115.9649m  584.0374m  576.9738m  412.9788m 
 -412.87475m  116.1063m  583.8960m  577.0738m  412.8789m 
 -412.77475m  116.2477m  583.7546m  577.1738m  412.7789m 
 -412.67475m  116.3891m  583.6132m  577.2738m  412.6789m 
 -412.57475m  116.5305m  583.4718m  577.3738m  412.5789m 
 -412.47475m  116.6720m  583.3304m  577.4738m  412.4790m 
 -412.37475m  116.8134m  583.1890m  577.5738m  412.3790m 
 -412.27475m  116.9548m  583.0476m  577.6738m  412.2790m 
 -412.17475m  117.0962m  582.9061m  577.7738m  412.1790m 
 -412.07475m  117.2376m  582.7647m  577.8738m  412.0791m 
 -411.97475m  117.3791m  582.6233m  577.9738m  411.9791m 
 -411.87475m  117.5205m  582.4819m  578.0738m  411.8791m 
 -411.77475m  117.6619m  582.3405m  578.1738m  411.7791m 
 -411.67475m  117.8033m  582.1991m  578.2738m  411.6792m 
 -411.57475m  117.9447m  582.0577m  578.3738m  411.5792m 
 -411.47475m  118.0861m  581.9163m  578.4738m  411.4792m 
 -411.37475m  118.2276m  581.7749m  578.5738m  411.3792m 
 -411.27475m  118.3690m  581.6335m  578.6738m  411.2793m 
 -411.17475m  118.5104m  581.4921m  578.7737m  411.1793m 
 -411.07475m  118.6518m  581.3507m  578.8737m  411.0793m 
 -410.97475m  118.7932m  581.2093m  578.9737m  410.9794m 
 -410.87475m  118.9346m  581.0679m  579.0737m  410.8794m 
 -410.77475m  119.0761m  580.9265m  579.1737m  410.7794m 
 -410.67475m  119.2175m  580.7851m  579.2737m  410.6794m 
 -410.57475m  119.3589m  580.6437m  579.3737m  410.5795m 
 -410.47475m  119.5003m  580.5023m  579.4737m  410.4795m 
 -410.37475m  119.6417m  580.3609m  579.5737m  410.3795m 
 -410.27475m  119.7831m  580.2195m  579.6737m  410.2795m 
 -410.17475m  119.9246m  580.0781m  579.7737m  410.1796m 
 -410.07475m  120.0660m  579.9367m  579.8737m  410.0796m 
 -409.97475m  120.2074m  579.7953m  579.9737m  409.9796m 
 -409.87475m  120.3488m  579.6539m  580.0737m  409.8797m 
 -409.77475m  120.4902m  579.5125m  580.1737m  409.7797m 
 -409.67475m  120.6316m  579.3711m  580.2737m  409.6797m 
 -409.57475m  120.7731m  579.2297m  580.3737m  409.5797m 
 -409.47475m  120.9145m  579.0883m  580.4736m  409.4798m 
 -409.37475m  121.0559m  578.9469m  580.5736m  409.3798m 
 -409.27475m  121.1973m  578.8055m  580.6736m  409.2798m 
 -409.17475m  121.3387m  578.6641m  580.7736m  409.1799m 
 -409.07475m  121.4801m  578.5227m  580.8736m  409.0799m 
 -408.97475m  121.6216m  578.3813m  580.9736m  408.9799m 
 -408.87475m  121.7630m  578.2399m  581.0736m  408.8800m 
 -408.77475m  121.9044m  578.0985m  581.1736m  408.7800m 
 -408.67475m  122.0458m  577.9571m  581.2736m  408.6800m 
 -408.57475m  122.1872m  577.8157m  581.3736m  408.5801m 
 -408.47475m  122.3286m  577.6743m  581.4736m  408.4801m 
 -408.37475m  122.4701m  577.5329m  581.5736m  408.3801m 
 -408.27475m  122.6115m  577.3915m  581.6736m  408.2801m 
 -408.17475m  122.7529m  577.2501m  581.7736m  408.1802m 
 -408.07475m  122.8943m  577.1087m  581.8736m  408.0802m 
 -407.97475m  123.0357m  576.9673m  581.9735m  407.9802m 
 -407.87475m  123.1771m  576.8259m  582.0735m  407.8803m 
 -407.77475m  123.3186m  576.6845m  582.1735m  407.7803m 
 -407.67475m  123.4600m  576.5431m  582.2735m  407.6803m 
 -407.57475m  123.6014m  576.4017m  582.3735m  407.5804m 
 -407.47475m  123.7428m  576.2603m  582.4735m  407.4804m 
 -407.37475m  123.8842m  576.1189m  582.5735m  407.3804m 
 -407.27475m  124.0256m  575.9775m  582.6735m  407.2805m 
 -407.17475m  124.1671m  575.8361m  582.7735m  407.1805m 
 -407.07475m  124.3085m  575.6947m  582.8735m  407.0805m 
 -406.97475m  124.4499m  575.5533m  582.9735m  406.9806m 
 -406.87475m  124.5913m  575.4119m  583.0735m  406.8806m 
 -406.77475m  124.7327m  575.2705m  583.1735m  406.7806m 
 -406.67475m  124.8741m  575.1291m  583.2735m  406.6807m 
 -406.57475m  125.0156m  574.9877m  583.3734m  406.5807m 
 -406.47475m  125.1570m  574.8463m  583.4734m  406.4808m 
 -406.37475m  125.2984m  574.7050m  583.5734m  406.3808m 
 -406.27475m  125.4398m  574.5636m  583.6734m  406.2808m 
 -406.17475m  125.5812m  574.4222m  583.7734m  406.1809m 
 -406.07475m  125.7226m  574.2808m  583.8734m  406.0809m 
 -405.97475m  125.8641m  574.1394m  583.9734m  405.9809m 
 -405.87475m  126.0055m  573.9980m  584.0734m  405.8810m 
 -405.77475m  126.1469m  573.8566m  584.1734m  405.7810m 
 -405.67475m  126.2883m  573.7152m  584.2734m  405.6810m 
 -405.57475m  126.4297m  573.5738m  584.3734m  405.5811m 
 -405.47475m  126.5711m  573.4324m  584.4734m  405.4811m 
 -405.37475m  126.7126m  573.2910m  584.5734m  405.3812m 
 -405.27475m  126.8540m  573.1496m  584.6733m  405.2812m 
 -405.17475m  126.9954m  573.0082m  584.7733m  405.1812m 
 -405.07475m  127.1368m  572.8668m  584.8733m  405.0813m 
 -404.97475m  127.2782m  572.7254m  584.9733m  404.9813m 
 -404.87475m  127.4196m  572.5840m  585.0733m  404.8814m 
 -404.77475m  127.5610m  572.4426m  585.1733m  404.7814m 
 -404.67475m  127.7025m  572.3012m  585.2733m  404.6814m 
 -404.57475m  127.8439m  572.1598m  585.3733m  404.5815m 
 -404.47475m  127.9853m  572.0185m  585.4733m  404.4815m 
 -404.37475m  128.1267m  571.8771m  585.5733m  404.3816m 
 -404.27475m  128.2681m  571.7357m  585.6733m  404.2816m 
 -404.17475m  128.4095m  571.5943m  585.7733m  404.1816m 
 -404.07475m  128.5510m  571.4529m  585.8732m  404.0817m 
 -403.97475m  128.6924m  571.3115m  585.9732m  403.9817m 
 -403.87475m  128.8338m  571.1701m  586.0732m  403.8818m 
 -403.77475m  128.9752m  571.0287m  586.1732m  403.7818m 
 -403.67475m  129.1166m  570.8873m  586.2732m  403.6818m 
 -403.57475m  129.2580m  570.7459m  586.3732m  403.5819m 
 -403.47475m  129.3994m  570.6045m  586.4732m  403.4819m 
 -403.37475m  129.5409m  570.4631m  586.5732m  403.3820m 
 -403.27475m  129.6823m  570.3218m  586.6732m  403.2820m 
 -403.17475m  129.8237m  570.1804m  586.7732m  403.1821m 
 -403.07475m  129.9651m  570.0390m  586.8732m  403.0821m 
 -402.97475m  130.1065m  569.8976m  586.9731m  402.9821m 
 -402.87475m  130.2479m  569.7562m  587.0731m  402.8822m 
 -402.77475m  130.3893m  569.6148m  587.1731m  402.7822m 
 -402.67475m  130.5308m  569.4734m  587.2731m  402.6823m 
 -402.57475m  130.6722m  569.3320m  587.3731m  402.5823m 
 -402.47475m  130.8136m  569.1906m  587.4731m  402.4824m 
 -402.37475m  130.9550m  569.0492m  587.5731m  402.3824m 
 -402.27475m  131.0964m  568.9079m  587.6731m  402.2825m 
 -402.17475m  131.2378m  568.7665m  587.7731m  402.1825m 
 -402.07475m  131.3792m  568.6251m  587.8731m  402.0826m 
 -401.97475m  131.5207m  568.4837m  587.9731m  401.9826m 
 -401.87475m  131.6621m  568.3423m  588.0730m  401.8826m 
 -401.77475m  131.8035m  568.2009m  588.1730m  401.7827m 
 -401.67475m  131.9449m  568.0595m  588.2730m  401.6827m 
 -401.57475m  132.0863m  567.9181m  588.3730m  401.5828m 
 -401.47475m  132.2277m  567.7768m  588.4730m  401.4828m 
 -401.37475m  132.3691m  567.6354m  588.5730m  401.3829m 
 -401.27475m  132.5106m  567.4940m  588.6730m  401.2829m 
 -401.17475m  132.6520m  567.3526m  588.7730m  401.1830m 
 -401.07475m  132.7934m  567.2112m  588.8730m  401.0830m 
 -400.97475m  132.9348m  567.0698m  588.9730m  400.9831m 
 -400.87475m  133.0762m  566.9284m  589.0729m  400.8831m 
 -400.77475m  133.2176m  566.7870m  589.1729m  400.7832m 
 -400.67475m  133.3590m  566.6457m  589.2729m  400.6832m 
 -400.57475m  133.5005m  566.5043m  589.3729m  400.5833m 
 -400.47475m  133.6419m  566.3629m  589.4729m  400.4833m 
 -400.37475m  133.7833m  566.2215m  589.5729m  400.3834m 
 -400.27475m  133.9247m  566.0801m  589.6729m  400.2834m 
 -400.17475m  134.0661m  565.9387m  589.7729m  400.1835m 
 -400.07475m  134.2075m  565.7973m  589.8729m  400.0835m 
 -399.97475m  134.3489m  565.6560m  589.9728m  399.9836m 
 -399.87475m  134.4904m  565.5146m  590.0728m  399.8836m 
 -399.77475m  134.6318m  565.3732m  590.1728m  399.7837m 
 -399.67475m  134.7732m  565.2318m  590.2728m  399.6837m 
 -399.57475m  134.9146m  565.0904m  590.3728m  399.5838m 
 -399.47475m  135.0560m  564.9490m  590.4728m  399.4839m 
 -399.37475m  135.1974m  564.8077m  590.5728m  399.3839m 
 -399.27475m  135.3388m  564.6663m  590.6728m  399.2840m 
 -399.17475m  135.4803m  564.5249m  590.7728m  399.1840m 
 -399.07475m  135.6217m  564.3835m  590.8727m  399.0841m 
 -398.97475m  135.7631m  564.2421m  590.9727m  398.9841m 
 -398.87475m  135.9045m  564.1008m  591.0727m  398.8842m 
 -398.77475m  136.0459m  563.9594m  591.1727m  398.7842m 
 -398.67475m  136.1873m  563.8180m  591.2727m  398.6843m 
 -398.57475m  136.3287m  563.6766m  591.3727m  398.5844m 
 -398.47475m  136.4701m  563.5352m  591.4727m  398.4844m 
 -398.37475m  136.6116m  563.3938m  591.5727m  398.3845m 
 -398.27475m  136.7530m  563.2525m  591.6726m  398.2845m 
 -398.17475m  136.8944m  563.1111m  591.7726m  398.1846m 
 -398.07475m  137.0358m  562.9697m  591.8726m  398.0847m 
 -397.97475m  137.1772m  562.8283m  591.9726m  397.9847m 
 -397.87475m  137.3186m  562.6870m  592.0726m  397.8848m 
 -397.77475m  137.4600m  562.5456m  592.1726m  397.7848m 
 -397.67475m  137.6014m  562.4042m  592.2726m  397.6849m 
 -397.57475m  137.7429m  562.2628m  592.3726m  397.5850m 
 -397.47475m  137.8843m  562.1214m  592.4725m  397.4850m 
 -397.37475m  138.0257m  561.9801m  592.5725m  397.3851m 
 -397.27475m  138.1671m  561.8387m  592.6725m  397.2851m 
 -397.17475m  138.3085m  561.6973m  592.7725m  397.1852m 
 -397.07475m  138.4499m  561.5559m  592.8725m  397.0853m 
 -396.97475m  138.5913m  561.4145m  592.9725m  396.9853m 
 -396.87475m  138.7327m  561.2732m  593.0725m  396.8854m 
 -396.77475m  138.8742m  561.1318m  593.1725m  396.7855m 
 -396.67475m  139.0156m  560.9904m  593.2724m  396.6855m 
 -396.57475m  139.1570m  560.8490m  593.3724m  396.5856m 
 -396.47475m  139.2984m  560.7077m  593.4724m  396.4856m 
 -396.37475m  139.4398m  560.5663m  593.5724m  396.3857m 
 -396.27475m  139.5812m  560.4249m  593.6724m  396.2858m 
 -396.17475m  139.7226m  560.2835m  593.7724m  396.1858m 
 -396.07475m  139.8640m  560.1422m  593.8724m  396.0859m 
 -395.97475m  140.0054m  560.0008m  593.9723m  395.9860m 
 -395.87475m  140.1469m  559.8594m  594.0723m  395.8860m 
 -395.77475m  140.2883m  559.7180m  594.1723m  395.7861m 
 -395.67475m  140.4297m  559.5767m  594.2723m  395.6862m 
 -395.57475m  140.5711m  559.4353m  594.3723m  395.5862m 
 -395.47475m  140.7125m  559.2939m  594.4723m  395.4863m 
 -395.37475m  140.8539m  559.1526m  594.5723m  395.3864m 
 -395.27475m  140.9953m  559.0112m  594.6722m  395.2865m 
 -395.17475m  141.1367m  558.8698m  594.7722m  395.1865m 
 -395.07475m  141.2781m  558.7284m  594.8722m  395.0866m 
 -394.97475m  141.4196m  558.5871m  594.9722m  394.9867m 
 -394.87475m  141.5610m  558.4457m  595.0722m  394.8867m 
 -394.77475m  141.7024m  558.3043m  595.1722m  394.7868m 
 -394.67475m  141.8438m  558.1630m  595.2722m  394.6869m 
 -394.57475m  141.9852m  558.0216m  595.3721m  394.5870m 
 -394.47475m  142.1266m  557.8802m  595.4721m  394.4870m 
 -394.37475m  142.2680m  557.7389m  595.5721m  394.3871m 
 -394.27475m  142.4094m  557.5975m  595.6721m  394.2872m 
 -394.17475m  142.5508m  557.4561m  595.7721m  394.1873m 
 -394.07475m  142.6923m  557.3147m  595.8721m  394.0873m 
 -393.97475m  142.8337m  557.1734m  595.9721m  393.9874m 
 -393.87475m  142.9751m  557.0320m  596.0720m  393.8875m 
 -393.77475m  143.1165m  556.8906m  596.1720m  393.7876m 
 -393.67475m  143.2579m  556.7493m  596.2720m  393.6876m 
 -393.57475m  143.3993m  556.6079m  596.3720m  393.5877m 
 -393.47475m  143.5407m  556.4665m  596.4720m  393.4878m 
 -393.37475m  143.6821m  556.3252m  596.5720m  393.3879m 
 -393.27475m  143.8235m  556.1838m  596.6719m  393.2879m 
 -393.17475m  143.9649m  556.0424m  596.7719m  393.1880m 
 -393.07475m  144.1064m  555.9011m  596.8719m  393.0881m 
 -392.97475m  144.2478m  555.7597m  596.9719m  392.9882m 
 -392.87475m  144.3892m  555.6184m  597.0719m  392.8883m 
 -392.77475m  144.5306m  555.4770m  597.1719m  392.7883m 
 -392.67475m  144.6720m  555.3356m  597.2718m  392.6884m 
 -392.57475m  144.8134m  555.1943m  597.3718m  392.5885m 
 -392.47475m  144.9548m  555.0529m  597.4718m  392.4886m 
 -392.37475m  145.0962m  554.9115m  597.5718m  392.3887m 
 -392.27475m  145.2376m  554.7702m  597.6718m  392.2888m 
 -392.17475m  145.3790m  554.6288m  597.7718m  392.1888m 
 -392.07475m  145.5204m  554.4875m  597.8717m  392.0889m 
 -391.97475m  145.6619m  554.3461m  597.9717m  391.9890m 
 -391.87475m  145.8033m  554.2047m  598.0717m  391.8891m 
 -391.77475m  145.9447m  554.0634m  598.1717m  391.7892m 
 -391.67475m  146.0861m  553.9220m  598.2717m  391.6893m 
 -391.57475m  146.2275m  553.7807m  598.3716m  391.5894m 
 -391.47475m  146.3689m  553.6393m  598.4716m  391.4894m 
 -391.37475m  146.5103m  553.4979m  598.5716m  391.3895m 
 -391.27475m  146.6517m  553.3566m  598.6716m  391.2896m 
 -391.17475m  146.7931m  553.2152m  598.7716m  391.1897m 
 -391.07475m  146.9345m  553.0739m  598.8716m  391.0898m 
 -390.97475m  147.0759m  552.9325m  598.9715m  390.9899m 
 -390.87475m  147.2173m  552.7911m  599.0715m  390.8900m 
 -390.77475m  147.3588m  552.6498m  599.1715m  390.7901m 
 -390.67475m  147.5002m  552.5084m  599.2715m  390.6902m 
 -390.57475m  147.6416m  552.3671m  599.3715m  390.5903m 
 -390.47475m  147.7830m  552.2257m  599.4714m  390.4904m 
 -390.37475m  147.9244m  552.0844m  599.5714m  390.3905m 
 -390.27475m  148.0658m  551.9430m  599.6714m  390.2905m 
 -390.17475m  148.2072m  551.8017m  599.7714m  390.1906m 
 -390.07475m  148.3486m  551.6603m  599.8714m  390.0907m 
 -389.97475m  148.4900m  551.5190m  599.9713m  389.9908m 
 -389.87475m  148.6314m  551.3776m  600.0713m  389.8909m 
 -389.77475m  148.7728m  551.2362m  600.1713m  389.7910m 
 -389.67475m  148.9142m  551.0949m  600.2713m  389.6911m 
 -389.57475m  149.0556m  550.9535m  600.3713m  389.5912m 
 -389.47475m  149.1971m  550.8122m  600.4712m  389.4913m 
 -389.37475m  149.3385m  550.6708m  600.5712m  389.3914m 
 -389.27475m  149.4799m  550.5295m  600.6712m  389.2915m 
 -389.17475m  149.6213m  550.3881m  600.7712m  389.1916m 
 -389.07475m  149.7627m  550.2468m  600.8712m  389.0917m 
 -388.97475m  149.9041m  550.1054m  600.9711m  388.9918m 
 -388.87475m  150.0455m  549.9641m  601.0711m  388.8919m 
 -388.77475m  150.1869m  549.8227m  601.1711m  388.7920m 
 -388.67475m  150.3283m  549.6814m  601.2711m  388.6921m 
 -388.57475m  150.4697m  549.5401m  601.3711m  388.5922m 
 -388.47475m  150.6111m  549.3987m  601.4710m  388.4924m 
 -388.37475m  150.7525m  549.2574m  601.5710m  388.3925m 
 -388.27475m  150.8939m  549.1160m  601.6710m  388.2926m 
 -388.17475m  151.0353m  548.9747m  601.7710m  388.1927m 
 -388.07475m  151.1767m  548.8333m  601.8709m  388.0928m 
 -387.97475m  151.3181m  548.6920m  601.9709m  387.9929m 
 -387.87475m  151.4596m  548.5506m  602.0709m  387.8930m 
 -387.77475m  151.6010m  548.4093m  602.1709m  387.7931m 
 -387.67475m  151.7424m  548.2679m  602.2709m  387.6932m 
 -387.57475m  151.8838m  548.1266m  602.3708m  387.5933m 
 -387.47475m  152.0252m  547.9853m  602.4708m  387.4934m 
 -387.37475m  152.1666m  547.8439m  602.5708m  387.3936m 
 -387.27475m  152.3080m  547.7026m  602.6708m  387.2937m 
 -387.17475m  152.4494m  547.5612m  602.7707m  387.1938m 
 -387.07475m  152.5908m  547.4199m  602.8707m  387.0939m 
 -386.97475m  152.7322m  547.2786m  602.9707m  386.9940m 
 -386.87475m  152.8736m  547.1372m  603.0707m  386.8941m 
 -386.77475m  153.0150m  546.9959m  603.1706m  386.7942m 
 -386.67475m  153.1564m  546.8545m  603.2706m  386.6944m 
 -386.57475m  153.2978m  546.7132m  603.3706m  386.5945m 
 -386.47475m  153.4392m  546.5719m  603.4706m  386.4946m 
 -386.37475m  153.5806m  546.4305m  603.5706m  386.3947m 
 -386.27475m  153.7220m  546.2892m  603.6705m  386.2948m 
 -386.17475m  153.8634m  546.1479m  603.7705m  386.1950m 
 -386.07475m  154.0048m  546.0065m  603.8705m  386.0951m 
 -385.97475m  154.1462m  545.8652m  603.9705m  385.9952m 
 -385.87475m  154.2876m  545.7239m  604.0704m  385.8953m 
 -385.77475m  154.4290m  545.5825m  604.1704m  385.7955m 
 -385.67475m  154.5705m  545.4412m  604.2704m  385.6956m 
 -385.57475m  154.7119m  545.2999m  604.3703m  385.5957m 
 -385.47475m  154.8533m  545.1585m  604.4703m  385.4958m 
 -385.37475m  154.9947m  545.0172m  604.5703m  385.3960m 
 -385.27475m  155.1361m  544.8759m  604.6703m  385.2961m 
 -385.17475m  155.2775m  544.7345m  604.7702m  385.1962m 
 -385.07475m  155.4189m  544.5932m  604.8702m  385.0964m 
 -384.97475m  155.5603m  544.4519m  604.9702m  384.9965m 
 -384.87475m  155.7017m  544.3106m  605.0702m  384.8966m 
 -384.77475m  155.8431m  544.1692m  605.1701m  384.7967m 
 -384.67475m  155.9845m  544.0279m  605.2701m  384.6969m 
 -384.57475m  156.1259m  543.8866m  605.3701m  384.5970m 
 -384.47475m  156.2673m  543.7452m  605.4701m  384.4972m 
 -384.37475m  156.4087m  543.6039m  605.5700m  384.3973m 
 -384.27475m  156.5501m  543.4626m  605.6700m  384.2974m 
 -384.17475m  156.6915m  543.3213m  605.7700m  384.1976m 
 -384.07475m  156.8329m  543.1799m  605.8699m  384.0977m 
 -383.97475m  156.9743m  543.0386m  605.9699m  383.9978m 
 -383.87475m  157.1157m  542.8973m  606.0699m  383.8980m 
 -383.77475m  157.2571m  542.7560m  606.1699m  383.7981m 
 -383.67475m  157.3985m  542.6147m  606.2698m  383.6983m 
 -383.57475m  157.5399m  542.4733m  606.3698m  383.5984m 
 -383.47475m  157.6813m  542.3320m  606.4698m  383.4985m 
 -383.37475m  157.8227m  542.1907m  606.5697m  383.3987m 
 -383.27475m  157.9641m  542.0494m  606.6697m  383.2988m 
 -383.17475m  158.1055m  541.9081m  606.7697m  383.1990m 
 -383.07475m  158.2469m  541.7667m  606.8697m  383.0991m 
 -382.97475m  158.3883m  541.6254m  606.9696m  382.9993m 
 -382.87475m  158.5297m  541.4841m  607.0696m  382.8994m 
 -382.77475m  158.6711m  541.3428m  607.1696m  382.7996m 
 -382.67475m  158.8125m  541.2015m  607.2695m  382.6997m 
 -382.57475m  158.9539m  541.0602m  607.3695m  382.5999m 
 -382.47475m  159.0953m  540.9189m  607.4695m  382.5000m 
 -382.37475m  159.2367m  540.7775m  607.5694m  382.4002m 
 -382.27475m  159.3781m  540.6362m  607.6694m  382.3003m 
 -382.17475m  159.5195m  540.4949m  607.7694m  382.2005m 
 -382.07475m  159.6609m  540.3536m  607.8693m  382.1006m 
 -381.97475m  159.8023m  540.2123m  607.9693m  382.0008m 
 -381.87475m  159.9437m  540.0710m  608.0693m  381.9010m 
 -381.77475m  160.0851m  539.9297m  608.1693m  381.8011m 
 -381.67475m  160.2265m  539.7884m  608.2692m  381.7013m 
 -381.57475m  160.3679m  539.6471m  608.3692m  381.6014m 
 -381.47475m  160.5093m  539.5058m  608.4692m  381.5016m 
 -381.37475m  160.6507m  539.3644m  608.5691m  381.4018m 
 -381.27475m  160.7921m  539.2231m  608.6691m  381.3019m 
 -381.17475m  160.9335m  539.0818m  608.7691m  381.2021m 
 -381.07475m  161.0749m  538.9405m  608.8690m  381.1023m 
 -380.97475m  161.2163m  538.7992m  608.9690m  381.0024m 
 -380.87475m  161.3577m  538.6579m  609.0690m  380.9026m 
 -380.77475m  161.4991m  538.5166m  609.1689m  380.8028m 
 -380.67475m  161.6405m  538.3753m  609.2689m  380.7029m 
 -380.57475m  161.7819m  538.2340m  609.3689m  380.6031m 
 -380.47475m  161.9233m  538.0927m  609.4688m  380.5033m 
 -380.37475m  162.0647m  537.9514m  609.5688m  380.4035m 
 -380.27475m  162.2061m  537.8101m  609.6687m  380.3036m 
 -380.17475m  162.3475m  537.6688m  609.7687m  380.2038m 
 -380.07475m  162.4888m  537.5275m  609.8687m  380.1040m 
 -379.97475m  162.6302m  537.3862m  609.9686m  380.0042m 
 -379.87475m  162.7716m  537.2449m  610.0686m  379.9043m 
 -379.77475m  162.9130m  537.1036m  610.1686m  379.8045m 
 -379.67475m  163.0544m  536.9624m  610.2685m  379.7047m 
 -379.57475m  163.1958m  536.8211m  610.3685m  379.6049m 
 -379.47475m  163.3372m  536.6798m  610.4685m  379.5051m 
 -379.37475m  163.4786m  536.5385m  610.5684m  379.4052m 
 -379.27475m  163.6200m  536.3972m  610.6684m  379.3054m 
 -379.17475m  163.7614m  536.2559m  610.7683m  379.2056m 
 -379.07475m  163.9028m  536.1146m  610.8683m  379.1058m 
 -378.97475m  164.0442m  535.9733m  610.9683m  379.0060m 
 -378.87475m  164.1856m  535.8320m  611.0682m  378.9062m 
 -378.77475m  164.3270m  535.6907m  611.1682m  378.8064m 
 -378.67475m  164.4684m  535.5495m  611.2682m  378.7066m 
 -378.57475m  164.6098m  535.4082m  611.3681m  378.6068m 
 -378.47475m  164.7512m  535.2669m  611.4681m  378.5070m 
 -378.37475m  164.8926m  535.1256m  611.5680m  378.4072m 
 -378.27475m  165.0340m  534.9843m  611.6680m  378.3073m 
 -378.17475m  165.1753m  534.8430m  611.7680m  378.2075m 
 -378.07475m  165.3167m  534.7018m  611.8679m  378.1077m 
 -377.97475m  165.4581m  534.5605m  611.9679m  378.0079m 
 -377.87475m  165.5995m  534.4192m  612.0678m  377.9081m 
 -377.77475m  165.7409m  534.2779m  612.1678m  377.8084m 
 -377.67475m  165.8823m  534.1367m  612.2678m  377.7086m 
 -377.57475m  166.0237m  533.9954m  612.3677m  377.6088m 
 -377.47475m  166.1651m  533.8541m  612.4677m  377.5090m 
 -377.37475m  166.3065m  533.7128m  612.5676m  377.4092m 
 -377.27475m  166.4479m  533.5716m  612.6676m  377.3094m 
 -377.17475m  166.5893m  533.4303m  612.7675m  377.2096m 
 -377.07475m  166.7307m  533.2890m  612.8675m  377.1098m 
 -376.97475m  166.8721m  533.1477m  612.9675m  377.0100m 
 -376.87475m  167.0134m  533.0065m  613.0674m  376.9102m 
 -376.77475m  167.1548m  532.8652m  613.1674m  376.8105m 
 -376.67475m  167.2962m  532.7239m  613.2673m  376.7107m 
 -376.57475m  167.4376m  532.5827m  613.3673m  376.6109m 
 -376.47475m  167.5790m  532.4414m  613.4672m  376.5111m 
 -376.37475m  167.7204m  532.3001m  613.5672m  376.4113m 
 -376.27475m  167.8618m  532.1589m  613.6672m  376.3116m 
 -376.17475m  168.0032m  532.0176m  613.7671m  376.2118m 
 -376.07475m  168.1446m  531.8764m  613.8671m  376.1120m 
 -375.97475m  168.2860m  531.7351m  613.9670m  376.0122m 
 -375.87475m  168.4273m  531.5938m  614.0670m  375.9125m 
 -375.77475m  168.5687m  531.4526m  614.1669m  375.8127m 
 -375.67475m  168.7101m  531.3113m  614.2669m  375.7129m 
 -375.57475m  168.8515m  531.1701m  614.3668m  375.6132m 
 -375.47475m  168.9929m  531.0288m  614.4668m  375.5134m 
 -375.37475m  169.1343m  530.8875m  614.5667m  375.4136m 
 -375.27475m  169.2757m  530.7463m  614.6667m  375.3139m 
 -375.17475m  169.4171m  530.6050m  614.7666m  375.2141m 
 -375.07475m  169.5584m  530.4638m  614.8666m  375.1143m 
 -374.97475m  169.6998m  530.3225m  614.9666m  375.0146m 
 -374.87475m  169.8412m  530.1813m  615.0665m  374.9148m 
 -374.77475m  169.9826m  530.0400m  615.1665m  374.8151m 
 -374.67475m  170.1240m  529.8988m  615.2664m  374.7153m 
 -374.57475m  170.2654m  529.7575m  615.3664m  374.6156m 
 -374.47475m  170.4068m  529.6163m  615.4663m  374.5158m 
 -374.37475m  170.5482m  529.4751m  615.5663m  374.4161m 
 -374.27475m  170.6895m  529.3338m  615.6662m  374.3163m 
 -374.17475m  170.8309m  529.1926m  615.7662m  374.2166m 
 -374.07475m  170.9723m  529.0513m  615.8661m  374.1168m 
 -373.97475m  171.1137m  528.9101m  615.9661m  374.0171m 
 -373.87475m  171.2551m  528.7689m  616.0660m  373.9173m 
 -373.77475m  171.3965m  528.6276m  616.1660m  373.8176m 
 -373.67475m  171.5378m  528.4864m  616.2659m  373.7179m 
 -373.57475m  171.6792m  528.3451m  616.3658m  373.6181m 
 -373.47475m  171.8206m  528.2039m  616.4658m  373.5184m 
 -373.37475m  171.9620m  528.0627m  616.5657m  373.4187m 
 -373.27475m  172.1034m  527.9214m  616.6657m  373.3189m 
 -373.17475m  172.2448m  527.7802m  616.7656m  373.2192m 
 -373.07475m  172.3862m  527.6390m  616.8656m  373.1195m 
 -372.97475m  172.5275m  527.4978m  616.9655m  373.0197m 
 -372.87475m  172.6689m  527.3565m  617.0655m  372.9200m 
 -372.77475m  172.8103m  527.2153m  617.1654m  372.8203m 
 -372.67475m  172.9517m  527.0741m  617.2654m  372.7206m 
 -372.57475m  173.0931m  526.9329m  617.3653m  372.6208m 
 -372.47475m  173.2344m  526.7916m  617.4653m  372.5211m 
 -372.37475m  173.3758m  526.6504m  617.5652m  372.4214m 
 -372.27475m  173.5172m  526.5092m  617.6651m  372.3217m 
 -372.17475m  173.6586m  526.3680m  617.7651m  372.2220m 
 -372.07475m  173.8000m  526.2268m  617.8650m  372.1223m 
 -371.97475m  173.9414m  526.0855m  617.9650m  372.0226m 
 -371.87475m  174.0827m  525.9443m  618.0649m  371.9229m 
 -371.77475m  174.2241m  525.8031m  618.1649m  371.8232m 
 -371.67475m  174.3655m  525.6619m  618.2648m  371.7234m 
 -371.57475m  174.5069m  525.5207m  618.3647m  371.6237m 
 -371.47475m  174.6483m  525.3795m  618.4647m  371.5240m 
 -371.37475m  174.7896m  525.2383m  618.5646m  371.4243m 
 -371.27475m  174.9310m  525.0971m  618.6646m  371.3247m 
 -371.17475m  175.0724m  524.9559m  618.7645m  371.2250m 
 -371.07475m  175.2138m  524.8147m  618.8644m  371.1253m 
 -370.97475m  175.3551m  524.6735m  618.9644m  371.0256m 
 -370.87475m  175.4965m  524.5323m  619.0643m  370.9259m 
 -370.77475m  175.6379m  524.3911m  619.1642m  370.8262m 
 -370.67475m  175.7793m  524.2499m  619.2642m  370.7265m 
 -370.57475m  175.9207m  524.1087m  619.3641m  370.6268m 
 -370.47475m  176.0620m  523.9675m  619.4641m  370.5271m 
 -370.37475m  176.2034m  523.8263m  619.5640m  370.4275m 
 -370.27475m  176.3448m  523.6851m  619.6639m  370.3278m 
 -370.17475m  176.4862m  523.5439m  619.7639m  370.2281m 
 -370.07475m  176.6275m  523.4027m  619.8638m  370.1284m 
 -369.97475m  176.7689m  523.2615m  619.9637m  370.0288m 
 -369.87475m  176.9103m  523.1203m  620.0637m  369.9291m 
 -369.77475m  177.0517m  522.9791m  620.1636m  369.8294m 
 -369.67475m  177.1930m  522.8379m  620.2635m  369.7298m 
 -369.57475m  177.3344m  522.6968m  620.3635m  369.6301m 
 -369.47475m  177.4758m  522.5556m  620.4634m  369.5304m 
 -369.37475m  177.6172m  522.4144m  620.5633m  369.4308m 
 -369.27475m  177.7585m  522.2732m  620.6633m  369.3311m 
 -369.17475m  177.8999m  522.1320m  620.7632m  369.2315m 
 -369.07475m  178.0413m  521.9909m  620.8631m  369.1318m 
 -368.97475m  178.1827m  521.8497m  620.9631m  369.0322m 
 -368.87475m  178.3240m  521.7085m  621.0630m  368.9325m 
 -368.77475m  178.4654m  521.5674m  621.1629m  368.8329m 
 -368.67475m  178.6068m  521.4262m  621.2629m  368.7332m 
 -368.57475m  178.7481m  521.2850m  621.3628m  368.6336m 
 -368.47475m  178.8895m  521.1439m  621.4627m  368.5340m 
 -368.37475m  179.0309m  521.0027m  621.5626m  368.4343m 
 -368.27475m  179.1723m  520.8615m  621.6626m  368.3347m 
 -368.17475m  179.3136m  520.7204m  621.7625m  368.2351m 
 -368.07475m  179.4550m  520.5792m  621.8624m  368.1354m 
 -367.97475m  179.5964m  520.4380m  621.9624m  368.0358m 
 -367.87475m  179.7377m  520.2969m  622.0623m  367.9362m 
 -367.77475m  179.8791m  520.1557m  622.1622m  367.8365m 
 -367.67475m  180.0205m  520.0146m  622.2621m  367.7369m 
 -367.57475m  180.1618m  519.8734m  622.3621m  367.6373m 
 -367.47475m  180.3032m  519.7323m  622.4620m  367.5377m 
 -367.37475m  180.4446m  519.5911m  622.5619m  367.4381m 
 -367.27475m  180.5859m  519.4500m  622.6618m  367.3385m 
 -367.17475m  180.7273m  519.3088m  622.7618m  367.2389m 
 -367.07475m  180.8687m  519.1677m  622.8617m  367.1393m 
 -366.97475m  181.0100m  519.0266m  622.9616m  367.0396m 
 -366.87475m  181.1514m  518.8854m  623.0615m  366.9400m 
 -366.77475m  181.2928m  518.7443m  623.1614m  366.8404m 
 -366.67475m  181.4341m  518.6031m  623.2614m  366.7409m 
 -366.57475m  181.5755m  518.4620m  623.3613m  366.6413m 
 -366.47475m  181.7169m  518.3209m  623.4612m  366.5417m 
 -366.37475m  181.8582m  518.1797m  623.5611m  366.4421m 
 -366.27475m  181.9996m  518.0386m  623.6610m  366.3425m 
 -366.17475m  182.1410m  517.8975m  623.7610m  366.2429m 
 -366.07475m  182.2823m  517.7564m  623.8609m  366.1433m 
 -365.97475m  182.4237m  517.6152m  623.9608m  366.0437m 
 -365.87475m  182.5650m  517.4741m  624.0607m  365.9442m 
 -365.77475m  182.7064m  517.3330m  624.1606m  365.8446m 
 -365.67475m  182.8478m  517.1919m  624.2605m  365.7450m 
 -365.57475m  182.9891m  517.0508m  624.3605m  365.6455m 
 -365.47475m  183.1305m  516.9097m  624.4604m  365.5459m 
 -365.37475m  183.2719m  516.7685m  624.5603m  365.4463m 
 -365.27475m  183.4132m  516.6274m  624.6602m  365.3468m 
 -365.17475m  183.5546m  516.4863m  624.7601m  365.2472m 
 -365.07475m  183.6959m  516.3452m  624.8600m  365.1477m 
 -364.97475m  183.8373m  516.2041m  624.9599m  365.0481m 
 -364.87475m  183.9787m  516.0630m  625.0599m  364.9486m 
 -364.77475m  184.1200m  515.9219m  625.1598m  364.8490m 
 -364.67475m  184.2614m  515.7808m  625.2597m  364.7495m 
 -364.57475m  184.4027m  515.6397m  625.3596m  364.6499m 
 -364.47475m  184.5441m  515.4986m  625.4595m  364.5504m 
 -364.37475m  184.6854m  515.3575m  625.5594m  364.4509m 
 -364.27475m  184.8268m  515.2164m  625.6593m  364.3513m 
 -364.17475m  184.9682m  515.0753m  625.7592m  364.2518m 
 -364.07475m  185.1095m  514.9343m  625.8591m  364.1523m 
 -363.97475m  185.2509m  514.7932m  625.9590m  364.0527m 
 -363.87475m  185.3922m  514.6521m  626.0589m  363.9532m 
 -363.77475m  185.5336m  514.5110m  626.1588m  363.8537m 
 -363.67475m  185.6749m  514.3699m  626.2588m  363.7542m 
 -363.57475m  185.8163m  514.2289m  626.3587m  363.6547m 
 -363.47475m  185.9576m  514.0878m  626.4586m  363.5552m 
 -363.37475m  186.0990m  513.9467m  626.5585m  363.4557m 
 -363.27475m  186.2403m  513.8056m  626.6584m  363.3562m 
 -363.17475m  186.3817m  513.6646m  626.7583m  363.2567m 
 -363.07475m  186.5230m  513.5235m  626.8582m  363.1572m 
 -362.97475m  186.6644m  513.3825m  626.9581m  363.0577m 
 -362.87475m  186.8057m  513.2414m  627.0580m  362.9582m 
 -362.77475m  186.9471m  513.1003m  627.1579m  362.8587m 
 -362.67475m  187.0884m  512.9593m  627.2578m  362.7592m 
 -362.57475m  187.2298m  512.8182m  627.3577m  362.6597m 
 -362.47475m  187.3711m  512.6772m  627.4576m  362.5603m 
 -362.37475m  187.5125m  512.5361m  627.5575m  362.4608m 
 -362.27475m  187.6538m  512.3951m  627.6574m  362.3613m 
 -362.17475m  187.7952m  512.2540m  627.7573m  362.2619m 
 -362.07475m  187.9365m  512.1130m  627.8572m  362.1624m 
 -361.97475m  188.0779m  511.9720m  627.9570m  362.0629m 
 -361.87475m  188.2192m  511.8309m  628.0569m  361.9635m 
 -361.77475m  188.3606m  511.6899m  628.1568m  361.8640m 
 -361.67475m  188.5019m  511.5489m  628.2567m  361.7646m 
 -361.57475m  188.6433m  511.4078m  628.3566m  361.6651m 
 -361.47475m  188.7846m  511.2668m  628.4565m  361.5657m 
 -361.37475m  188.9260m  511.1258m  628.5564m  361.4663m 
 -361.27475m  189.0673m  510.9847m  628.6563m  361.3668m 
 -361.17475m  189.2086m  510.8437m  628.7562m  361.2674m 
 -361.07475m  189.3500m  510.7027m  628.8561m  361.1680m 
 -360.97475m  189.4913m  510.5617m  628.9560m  361.0685m 
 -360.87475m  189.6327m  510.4207m  629.0558m  360.9691m 
 -360.77475m  189.7740m  510.2797m  629.1557m  360.8697m 
 -360.67475m  189.9154m  510.1387m  629.2556m  360.7703m 
 -360.57475m  190.0567m  509.9977m  629.3555m  360.6709m 
 -360.47475m  190.1980m  509.8567m  629.4554m  360.5715m 
 -360.37475m  190.3394m  509.7157m  629.5553m  360.4721m 
 -360.27475m  190.4807m  509.5747m  629.6552m  360.3727m 
 -360.17475m  190.6221m  509.4337m  629.7550m  360.2733m 
 -360.07475m  190.7634m  509.2927m  629.8549m  360.1739m 
[...]
  469.52525m  664.0091m   35.9910m  469.5254m  520.4242m 
  469.62525m  664.1505m   35.8496m  469.6254m  520.3242m 
  469.72525m  664.2919m   35.7081m  469.7254m  520.2242m 
  469.82525m  664.4334m   35.5667m  469.8254m  520.1242m 
  469.92525m  664.5748m   35.4253m  469.9254m  520.0242m 
  470.02525m  664.7162m   35.2839m  470.0254m  519.9242m 
  470.12525m  664.8576m   35.1425m  470.1254m  519.8242m 
  470.22525m  664.9990m   35.0010m  470.2254m  519.7242m 
  470.32525m  665.1405m   34.8596m  470.3254m  519.6242m 
  470.42525m  665.2819m   34.7182m  470.4254m  519.5242m 
  470.52525m  665.4233m   34.5768m  470.5254m  519.4242m 
  470.62525m  665.5647m   34.4354m  470.6254m  519.3242m 
  470.72525m  665.7061m   34.2939m  470.7254m  519.2242m 
  470.82525m  665.8476m   34.1525m  470.8254m  519.1242m 
  470.92525m  665.9890m   34.0111m  470.9254m  519.0242m 
  471.02525m  666.1304m   33.8697m  471.0254m  518.9242m 
  471.12525m  666.2718m   33.7283m  471.1254m  518.8242m 
  471.22525m  666.4132m   33.5868m  471.2254m  518.7242m 
  471.32525m  666.5547m   33.4454m  471.3254m  518.6242m 
  471.42525m  666.6961m   33.3040m  471.4254m  518.5242m 
  471.52525m  666.8375m   33.1626m  471.5254m  518.4242m 
  471.62525m  666.9789m   33.0211m  471.6254m  518.3242m 
  471.72525m  667.1204m   32.8797m  471.7254m  518.2242m 
  471.82525m  667.2618m   32.7383m  471.8254m  518.1242m 
  471.92525m  667.4032m   32.5969m  471.9254m  518.0242m 
  472.02525m  667.5446m   32.4555m  472.0254m  517.9242m 
  472.12525m  667.6860m   32.3140m  472.1254m  517.8242m 
  472.22525m  667.8275m   32.1726m  472.2254m  517.7242m 
  472.32525m  667.9689m   32.0312m  472.3254m  517.6242m 
  472.42525m  668.1103m   31.8898m  472.4254m  517.5242m 
  472.52525m  668.2517m   31.7484m  472.5254m  517.4242m 
  472.62525m  668.3931m   31.6069m  472.6254m  517.3242m 
  472.72525m  668.5346m   31.4655m  472.7254m  517.2242m 
  472.82525m  668.6760m   31.3241m  472.8254m  517.1242m 
  472.92525m  668.8174m   31.1827m  472.9254m  517.0242m 
  473.02525m  668.9588m   31.0412m  473.0254m  516.9242m 
  473.12525m  669.1002m   30.8998m  473.1254m  516.8242m 
  473.22525m  669.2417m   30.7584m  473.2254m  516.7242m 
  473.32525m  669.3831m   30.6170m  473.3254m  516.6242m 
  473.42525m  669.5245m   30.4756m  473.4254m  516.5242m 
  473.52525m  669.6659m   30.3341m  473.5254m  516.4242m 
  473.62525m  669.8073m   30.1927m  473.6254m  516.3242m 
  473.72525m  669.9488m   30.0513m  473.7254m  516.2242m 
  473.82525m  670.0902m   29.9099m  473.8254m  516.1242m 
  473.92525m  670.2316m   29.7685m  473.9254m  516.0242m 
  474.02525m  670.3730m   29.6270m  474.0254m  515.9242m 
  474.12525m  670.5145m   29.4856m  474.1254m  515.8242m 
  474.22525m  670.6559m   29.3442m  474.2254m  515.7242m 
  474.32525m  670.7973m   29.2028m  474.3254m  515.6242m 
  474.42525m  670.9387m   29.0614m  474.4254m  515.5242m 
  474.52525m  671.0801m   28.9199m  474.5254m  515.4242m 
  474.62525m  671.2216m   28.7785m  474.6254m  515.3242m 
  474.72525m  671.3630m   28.6371m  474.7254m  515.2242m 
  474.82525m  671.5044m   28.4957m  474.8254m  515.1242m 
  474.92525m  671.6458m   28.3542m  474.9254m  515.0242m 
  475.02525m  671.7872m   28.2128m  475.0254m  514.9242m 
  475.12525m  671.9287m   28.0714m  475.1254m  514.8242m 
  475.22525m  672.0701m   27.9300m  475.2254m  514.7242m 
  475.32525m  672.2115m   27.7886m  475.3254m  514.6242m 
  475.42525m  672.3529m   27.6471m  475.4254m  514.5242m 
  475.52525m  672.4943m   27.5057m  475.5254m  514.4242m 
  475.62525m  672.6358m   27.3643m  475.6254m  514.3242m 
  475.72525m  672.7772m   27.2229m  475.7254m  514.2242m 
  475.82525m  672.9186m   27.0815m  475.8254m  514.1242m 
  475.92525m  673.0600m   26.9400m  475.9254m  514.0242m 
  476.02525m  673.2014m   26.7986m  476.0254m  513.9242m 
  476.12525m  673.3429m   26.6572m  476.1254m  513.8242m 
  476.22525m  673.4843m   26.5158m  476.2254m  513.7242m 
  476.32525m  673.6257m   26.3743m  476.3254m  513.6242m 
  476.42525m  673.7671m   26.2329m  476.4254m  513.5242m 
  476.52525m  673.9086m   26.0915m  476.5254m  513.4242m 
  476.62525m  674.0500m   25.9501m  476.6254m  513.3242m 
  476.72525m  674.1914m   25.8087m  476.7254m  513.2242m 
  476.82525m  674.3328m   25.6672m  476.8254m  513.1242m 
  476.92525m  674.4742m   25.5258m  476.9254m  513.0242m 
  477.02525m  674.6157m   25.3844m  477.0254m  512.9242m 
  477.12525m  674.7571m   25.2430m  477.1254m  512.8242m 
  477.22525m  674.8985m   25.1016m  477.2254m  512.7242m 
  477.32525m  675.0399m   24.9601m  477.3254m  512.6242m 
  477.42525m  675.1813m   24.8187m  477.4254m  512.5242m 
  477.52525m  675.3228m   24.6773m  477.5254m  512.4242m 
  477.62525m  675.4642m   24.5359m  477.6254m  512.3242m 
  477.72525m  675.6056m   24.3944m  477.7254m  512.2242m 
  477.82525m  675.7470m   24.2530m  477.8254m  512.1242m 
  477.92525m  675.8884m   24.1116m  477.9254m  512.0242m 
  478.02525m  676.0299m   23.9702m  478.0254m  511.9242m 
  478.12525m  676.1713m   23.8288m  478.1254m  511.8242m 
  478.22525m  676.3127m   23.6873m  478.2254m  511.7242m 
  478.32525m  676.4541m   23.5459m  478.3254m  511.6242m 
  478.42525m  676.5956m   23.4045m  478.4254m  511.5242m 
  478.52525m  676.7370m   23.2631m  478.5254m  511.4242m 
  478.62525m  676.8784m   23.1217m  478.6254m  511.3242m 
  478.72525m  677.0198m   22.9802m  478.7254m  511.2242m 
  478.82525m  677.1612m   22.8388m  478.8254m  511.1242m 
  478.92525m  677.3027m   22.6974m  478.9254m  511.0242m 
  479.02525m  677.4441m   22.5560m  479.0254m  510.9242m 
  479.12525m  677.5855m   22.4146m  479.1254m  510.8242m 
  479.22525m  677.7269m   22.2731m  479.2253m  510.7242m 
  479.32525m  677.8683m   22.1317m  479.3253m  510.6242m 
  479.42525m  678.0098m   21.9903m  479.4253m  510.5242m 
  479.52525m  678.1512m   21.8489m  479.5253m  510.4242m 
  479.62525m  678.2926m   21.7074m  479.6253m  510.3242m 
  479.72525m  678.4340m   21.5660m  479.7253m  510.2242m 
  479.82525m  678.5754m   21.4246m  479.8253m  510.1242m 
  479.92525m  678.7169m   21.2832m  479.9253m  510.0242m 
  480.02525m  678.8583m   21.1418m  480.0253m  509.9242m 
  480.12525m  678.9997m   21.0003m  480.1253m  509.8242m 
  480.22525m  679.1411m   20.8589m  480.2253m  509.7242m 
  480.32525m  679.2826m   20.7175m  480.3253m  509.6242m 
  480.42525m  679.4240m   20.5761m  480.4253m  509.5242m 
  480.52525m  679.5654m   20.4347m  480.5253m  509.4242m 
  480.62525m  679.7068m   20.2932m  480.6253m  509.3242m 
  480.72525m  679.8482m   20.1518m  480.7253m  509.2242m 
  480.82525m  679.9897m   20.0104m  480.8253m  509.1242m 
  480.92525m  680.1311m   19.8690m  480.9253m  509.0242m 
  481.02525m  680.2725m   19.7275m  481.0253m  508.9242m 
  481.12525m  680.4139m   19.5861m  481.1253m  508.8242m 
  481.22525m  680.5553m   19.4447m  481.2253m  508.7242m 
  481.32525m  680.6968m   19.3033m  481.3253m  508.6242m 
  481.42525m  680.8382m   19.1619m  481.4253m  508.5242m 
  481.52525m  680.9796m   19.0204m  481.5253m  508.4242m 
  481.62525m  681.1210m   18.8790m  481.6253m  508.3242m 
  481.72525m  681.2624m   18.7376m  481.7253m  508.2242m 
  481.82525m  681.4039m   18.5962m  481.8253m  508.1242m 
  481.92525m  681.5453m   18.4548m  481.9253m  508.0242m 
  482.02525m  681.6867m   18.3133m  482.0253m  507.9242m 
  482.12525m  681.8281m   18.1719m  482.1253m  507.8242m 
  482.22525m  681.9696m   18.0305m  482.2253m  507.7242m 
  482.32525m  682.1110m   17.8891m  482.3253m  507.6242m 
  482.42525m  682.2524m   17.7476m  482.4253m  507.5242m 
  482.52525m  682.3938m   17.6062m  482.5253m  507.4242m 
  482.62525m  682.5352m   17.4648m  482.6253m  507.3242m 
  482.72525m  682.6767m   17.3234m  482.7253m  507.2242m 
  482.82525m  682.8181m   17.1820m  482.8253m  507.1242m 
  482.92525m  682.9595m   17.0405m  482.9253m  507.0242m 
  483.02525m  683.1009m   16.8991m  483.0253m  506.9242m 
  483.12525m  683.2423m   16.7577m  483.1253m  506.8242m 
  483.22525m  683.3838m   16.6163m  483.2253m  506.7242m 
  483.32525m  683.5252m   16.4749m  483.3253m  506.6242m 
  483.42525m  683.6666m   16.3334m  483.4253m  506.5242m 
  483.52525m  683.8080m   16.1920m  483.5253m  506.4242m 
  483.62525m  683.9494m   16.0506m  483.6253m  506.3242m 
  483.72525m  684.0909m   15.9092m  483.7253m  506.2242m 
  483.82525m  684.2323m   15.7678m  483.8253m  506.1242m 
  483.92525m  684.3737m   15.6263m  483.9253m  506.0242m 
  484.02525m  684.5151m   15.4849m  484.0253m  505.9242m 
  484.12525m  684.6566m   15.3435m  484.1253m  505.8242m 
  484.22525m  684.7980m   15.2021m  484.2253m  505.7242m 
  484.32525m  684.9394m   15.0606m  484.3253m  505.6242m 
  484.42525m  685.0808m   14.9192m  484.4253m  505.5242m 
  484.52525m  685.2222m   14.7778m  484.5253m  505.4242m 
  484.62525m  685.3637m   14.6364m  484.6253m  505.3242m 
  484.72525m  685.5051m   14.4950m  484.7253m  505.2242m 
  484.82525m  685.6465m   14.3535m  484.8253m  505.1242m 
  484.92525m  685.7879m   14.2121m  484.9253m  505.0242m 
  485.02525m  685.9293m   14.0707m  485.0253m  504.9242m 
  485.12525m  686.0708m   13.9293m  485.1253m  504.8242m 
  485.22525m  686.2122m   13.7879m  485.2253m  504.7242m 
  485.32525m  686.3536m   13.6464m  485.3253m  504.6242m 
  485.42525m  686.4950m   13.5050m  485.4253m  504.5242m 
  485.52525m  686.6364m   13.3636m  485.5253m  504.4242m 
  485.62525m  686.7779m   13.2222m  485.6253m  504.3242m 
  485.72525m  686.9193m   13.0807m  485.7253m  504.2242m 
  485.82525m  687.0607m   12.9393m  485.8253m  504.1242m 
  485.92525m  687.2021m   12.7979m  485.9253m  504.0242m 
  486.02525m  687.3436m   12.6565m  486.0253m  503.9242m 
  486.12525m  687.4850m   12.5151m  486.1253m  503.8242m 
  486.22525m  687.6264m   12.3736m  486.2253m  503.7242m 
  486.32525m  687.7678m   12.2322m  486.3253m  503.6242m 
  486.42525m  687.9092m   12.0908m  486.4253m  503.5242m 
  486.52525m  688.0507m   11.9494m  486.5253m  503.4242m 
  486.62525m  688.1921m   11.8080m  486.6253m  503.3242m 
  486.72525m  688.3335m   11.6665m  486.7253m  503.2242m 
  486.82525m  688.4749m   11.5251m  486.8253m  503.1242m 
  486.92525m  688.6163m   11.3837m  486.9253m  503.0242m 
  487.02525m  688.7578m   11.2423m  487.0253m  502.9242m 
  487.12525m  688.8992m   11.1008m  487.1253m  502.8242m 
  487.22525m  689.0406m   10.9594m  487.2253m  502.7242m 
  487.32525m  689.1820m   10.8180m  487.3253m  502.6242m 
  487.42525m  689.3234m   10.6766m  487.4253m  502.5242m 
  487.52525m  689.4649m   10.5352m  487.5253m  502.4242m 
  487.62525m  689.6063m   10.3937m  487.6253m  502.3242m 
  487.72525m  689.7477m   10.2523m  487.7253m  502.2242m 
  487.82525m  689.8891m   10.1109m  487.8253m  502.1242m 
  487.92525m  690.0306m    9.9695m  487.9253m  502.0242m 
  488.02525m  690.1720m    9.8281m  488.0253m  501.9242m 
  488.12525m  690.3134m    9.6866m  488.1253m  501.8242m 
  488.22525m  690.4548m    9.5452m  488.2253m  501.7242m 
  488.32525m  690.5962m    9.4038m  488.3253m  501.6242m 
  488.42525m  690.7377m    9.2624m  488.4253m  501.5242m 
  488.52525m  690.8791m    9.1209m  488.5253m  501.4242m 
  488.62525m  691.0205m    8.9795m  488.6253m  501.3242m 
  488.72525m  691.1619m    8.8381m  488.7253m  501.2242m 
  488.82525m  691.3033m    8.6967m  488.8253m  501.1242m 
  488.92525m  691.4448m    8.5553m  488.9253m  501.0242m 
  489.02525m  691.5862m    8.4138m  489.0253m  500.9242m 
  489.12525m  691.7276m    8.2724m  489.1253m  500.8242m 
  489.22525m  691.8690m    8.1310m  489.2253m  500.7242m 
  489.32525m  692.0105m    7.9896m  489.3253m  500.6242m 
  489.42525m  692.1519m    7.8482m  489.4253m  500.5242m 
  489.52525m  692.2933m    7.7067m  489.5253m  500.4242m 
  489.62525m  692.4347m    7.5653m  489.6253m  500.3242m 
  489.72525m  692.5761m    7.4239m  489.7253m  500.2242m 
  489.82525m  692.7176m    7.2825m  489.8253m  500.1242m 
  489.92525m  692.8590m    7.1411m  489.9253m  500.0242m 
  490.02525m  693.0004m    6.9996m  490.0253m  499.9242m 
  490.12525m  693.1418m    6.8582m  490.1253m  499.8242m 
  490.22525m  693.2832m    6.7168m  490.2253m  499.7242m 
  490.32525m  693.4247m    6.5754m  490.3253m  499.6242m 
  490.42525m  693.5661m    6.4339m  490.4253m  499.5242m 
  490.52525m  693.7075m    6.2925m  490.5253m  499.4242m 
  490.62525m  693.8489m    6.1511m  490.6253m  499.3242m 
  490.72525m  693.9903m    6.0097m  490.7253m  499.2242m 
  490.82525m  694.1318m    5.8683m  490.8253m  499.1242m 
  490.92525m  694.2732m    5.7268m  490.9253m  499.0242m 
  491.02525m  694.4146m    5.5854m  491.0253m  498.9242m 
  491.12525m  694.5560m    5.4440m  491.1253m  498.8242m 
  491.22525m  694.6975m    5.3026m  491.2253m  498.7242m 
  491.32525m  694.8389m    5.1612m  491.3253m  498.6242m 
  491.42525m  694.9803m    5.0197m  491.4253m  498.5242m 
  491.52525m  695.1217m    4.8783m  491.5253m  498.4242m 
  491.62525m  695.2631m    4.7369m  491.6253m  498.3242m 
  491.72525m  695.4046m    4.5955m  491.7253m  498.2242m 
  491.82525m  695.5460m    4.4540m  491.8253m  498.1242m 
  491.92525m  695.6874m    4.3126m  491.9253m  498.0242m 
  492.02525m  695.8288m    4.1712m  492.0253m  497.9242m 
  492.12525m  695.9702m    4.0298m  492.1253m  497.8242m 
  492.22525m  696.1117m    3.8884m  492.2253m  497.7242m 
  492.32525m  696.2531m    3.7469m  492.3253m  497.6242m 
  492.42525m  696.3945m    3.6055m  492.4253m  497.5242m 
  492.52525m  696.5359m    3.4641m  492.5253m  497.4242m 
  492.62525m  696.6773m    3.3227m  492.6253m  497.3242m 
  492.72525m  696.8188m    3.1813m  492.7253m  497.2242m 
  492.82525m  696.9602m    3.0398m  492.8253m  497.1242m 
  492.92525m  697.1016m    2.8984m  492.9253m  497.0242m 
  493.02525m  697.2430m    2.7570m  493.0253m  496.9242m 
  493.12525m  697.3845m    2.6156m  493.1253m  496.8242m 
  493.22525m  697.5259m    2.4741m  493.2253m  496.7242m 
  493.32525m  697.6673m    2.3327m  493.3253m  496.6242m 
  493.42525m  697.8087m    2.1913m  493.4253m  496.5242m 
  493.52525m  697.9501m    2.0499m  493.5253m  496.4242m 
  493.62525m  698.0916m    1.9085m  493.6253m  496.3242m 
  493.72525m  698.2330m    1.7670m  493.7253m  496.2242m 
  493.82525m  698.3744m    1.6256m  493.8253m  496.1242m 
  493.92525m  698.5158m    1.4842m  493.9253m  496.0242m 
  494.02525m  698.6572m    1.3428m  494.0253m  495.9242m 
  494.12525m  698.7987m    1.2014m  494.1253m  495.8242m 
  494.22525m  698.9401m    1.0599m  494.2253m  495.7242m 
  494.32525m  699.0815m  918.5136u  494.3253m  495.6242m 
  494.42525m  699.2229m  777.0923u  494.4253m  495.5242m 
  494.52525m  699.3644m  635.6709u  494.5253m  495.4242m 
  494.62525m  699.5058m  494.2496u  494.6253m  495.3242m 
  494.72525m  699.6472m  352.8283u  494.7253m  495.2242m 
  494.82525m  699.7886m  211.4070u  494.8253m  495.1242m 
  494.92525m  699.9300m   69.9857u  494.9253m  495.0242m 
y
 max_1= 431.6740m    at=-253.0747m
             from=-494.9747m    to= 494.9253m
 max_2= 431.6740m    at= 253.1253m
             from=-494.9747m    to= 494.9253m
 snm= 305.2396m
1****** HSPICE -- Q-2020.03-SP2-2 linux64 (Nov  1 2020) ******                  
 ******  
 .title noise margin in hold operation

 ****** operating point information tnom=  25.000 temp=  25.000 ******
 ****** operating point status is all       simulation time is     0.     
    node    =voltage      node    =voltage      node    =voltage

 +0:bl      = 700.0000m 0:blb     = 700.0000m 0:gl      = 369.3009m
 +0:gr      = 369.3009m 0:q       = 369.3009m 0:qb      = 369.3009m
 +0:u       =   0.      0:v1      = 522.2703m 0:v2      = 522.2703m
 +0:vdd     = 700.0000m 0:wl      =   0.      0:x       = 658.1762m


 **** voltage sources

 subckt                                   
 element  0:vu       0:vvdd     0:vwl     
  volts      0.       700.0000m    0.     
  current    0.      -998.3374n  305.0209f
  power      0.       698.8361n    0.     

     total voltage source power dissipation=  698.8361n       watts



 **** voltage-controlled voltage sources


 subckt                                              
 element  0:eli      0:ev1      0:eri      0:ev2     
  volts    369.3009m  522.2703m  369.3009m  522.2703m
  current   16.1798f    0.        16.1798f    0.     





 **** mosfets


 subckt                                                                    
 element  0:mpr      0:mnr      0:mpl      0:mnl      0:mnpr     0:mnpl    
 model    0:pmos_sra 0:nmos_sra 0:pmos_sra 0:nmos_sra 0:nmos_sra 0:nmos_sra
 region   Subth      Subth      Subth      Subth      Cutoff     Cutoff    
  id      -499.1686n  499.1686n -499.1686n  499.1686n  938.2452a  938.2452a
  ibs        0.         0.         0.         0.         0.         0.     
  ibd        0.         0.         0.         0.         0.         0.     
  vgs     -330.6991m  369.3009m -330.6991m  369.3009m -369.3009m -369.3009m
  vds     -330.6991m  369.3009m -330.6991m  369.3009m  330.6991m  330.6991m
  vbs      -41.8238m  658.1762m  -41.8238m  658.1762m  288.8753m  288.8753m
  vth     -334.7549m  408.4973m -334.7549m  408.4973m  408.7099m  408.7099m
  vdsat    -95.5226m   79.1197m  -95.5226m   79.1197m   70.6690m   70.6690m
  vod        4.0558m  -39.1964m    4.0558m  -39.1964m -778.0108m -778.0108m
  beta       1.6413m    2.1736m    1.6413m    2.1736m    2.1736m    2.1736m
  gam eff    0.         0.         0.         0.         0.         0.     
  gm        12.9907u   15.3998u   12.9907u   15.3998u  8.590e-21  8.590e-21
  gds      301.4608n  239.6269n  301.4608n  239.6269n  228.2566a  228.2566a
  gmb        4.8922p   12.0124p    4.8922p   12.0124p  1.316e-20  1.316e-20
  cdtot     10.1750a   10.2205a   10.1750a   10.2205a   10.2225a   10.2225a
  cgtot     31.2784a   26.1428a   31.2784a   26.1428a   20.4450a   20.4450a
  cstot     17.2863a   14.0661a   17.2863a   14.0661a   10.2225a   10.2225a
  cbtot      0.         0.         0.         0.         0.         0.     
  cgs       21.2138a   15.9421a   21.2138a   15.9421a   10.2225a   10.2225a
  cgd       10.0646a   10.2007a   10.0646a   10.2007a   10.2225a   10.2225a




          ***** job concluded
 ******  
 .title noise margin in hold operation

 ****** job statistics summary tnom=  25.000 temp=  25.000 ******
  
 ******  Machine Information  ******
 CPU:
 model name	: AMD EPYC 7713 64-Core Processor
 cpu MHz	: 2000.000
  
 OS:
 Linux version 3.10.0-1160.88.1.el7.x86_64 (mockbuild@kbuilder.bsys.centos.org) (gcc version 4.8.5 20150623 (Red Hat 4.8.5-44) (GCC) ) #1 SMP Tue Mar 7 15:41:52 UTC 2023


  ******  HSPICE Threads Information  ******

  Command Line Threads Count :     1
  Available CPU Count        :   256
  Actual Threads Count       :     1


  ******  Circuit Statistics  ******
  # nodes       =      13 # elements   =      15
  # resistors   =       0 # capacitors =       2 # inductors   =       0
  # mutual_inds =       0 # vccs       =       0 # vcvs        =       4
  # cccs        =       0 # ccvs       =       0 # volt_srcs   =       3
  # curr_srcs   =       0 # diodes     =       0 # bjts        =       0
  # jfets       =       0 # mosfets    =       6 # U elements  =       0
  # T elements  =       0 # W elements =       0 # B elements  =       0
  # S elements  =       0 # P elements =       0 # va device   =       0
  # vector_srcs =       0 # N elements =       0


  ******  Runtime Statistics (seconds)  ******

  analysis           time    # points   tot. iter  conv.iter
  op point           0.01           1          10
  dc sweep           0.84        9900       29712
  readin             0.02
  errchk             0.00
  setup              0.00
  output             0.00


           peak memory used        406.02 megabytes
           total cpu time            0.94 seconds
           total elapsed time        1.11 seconds
           job started at     19:53:11 03/20/2025
           job ended   at     19:53:12 03/20/2025
           job total runtime         1.11 seconds


 lic: Release hspice token(s) 
 lic: total license checkout elapse time:        0.15(s)
