 ****** HSPICE -- Q-2020.03-SP2-2 linux64 (Nov  1 2020) ******                  
  Copyright (c) 1986 - 2025 by Synopsys, Inc. All Rights Reserved.              
  This software and the associated documentation are proprietary
  to Synopsys, Inc. This software may only be used in accordance
  with the terms and conditions of a written license agreement with
  Synopsys, Inc. All other use, reproduction, or distribution of
  this software is strictly prohibited.
  Input File: SRAM_RSNM_TT_DifWordline.sp                                       
  Command line options: /RAID2/cad/synopsys/hspice/2020.03-sp2-2/hspice/linux64/hspice -i SRAM_RSNM_TT_DifWordline.sp -o SRAM_RSNM_TT_DifWordline.lis
  Start time: Sun Mar 23 20:53:30 2025
 lic:  
 lic: FLEXlm: SDK_12.6 
 lic: USER:   es25MCS042           HOSTNAME: ee28 
 lic: HOSTID: "d85ed3efc19a"       PID:      73130 
 lic: Using FLEXlm license file: 
 lic: 26585@lshc 
 lic: Checkout 1 hspice 
 lic: License/Maintenance for hspice will expire on 14-may-2025/2024.09 
 lic: 202(in_use)/1100(total) FLOATING license(s) on SERVER 26585@lshc 
 lic:   
  
      
             
 Warning:'Floating bulk' occurs 1 times
 Summary of floating bulk:
 -----------------------
 |Node      |Device    |
 |----------+----------|
 |x         |mpr       |
 -----------------------
              
 *****************************************************************
 ******  option summary
 ******
 runlvl  = 3         bypass  = 2.0000    
 ******
 .title noise margin in read operation

 ****** dc transfer curves tnom=  25.000 temp=  25.000 ******
x

 volt         voltage    voltage    voltage    voltage   
             q          qb         gl         gr         
 -494.97475m  189.0547m  700.0000m   -7.7396n  889.0547m 
 -494.87475m  189.0716m  700.0000m  141.4136u  888.9302m 
 -494.77475m  189.0885m  700.0000m  282.8349u  888.8057m 
 -494.67475m  189.1055m  700.0000m  424.2562u  888.6812m 
 -494.57475m  189.1224m  700.0000m  565.6775u  888.5567m 
 -494.47475m  189.1394m  700.0000m  707.0989u  888.4323m 
 -494.37475m  189.1563m  700.0000m  848.5202u  888.3078m 
 -494.27475m  189.1733m  700.0000m  989.9415u  888.1834m 
 -494.17475m  189.1903m  700.0000m    1.1314m  888.0589m 
 -494.07475m  189.2073m  700.0000m    1.2728m  887.9345m 
 -493.97475m  189.2243m  700.0000m    1.4142m  887.8101m 
 -493.87475m  189.2413m  700.0000m    1.5556m  887.6857m 
 -493.77475m  189.2584m  700.0000m    1.6970m  887.5613m 
 -493.67475m  189.2754m  700.0000m    1.8385m  887.4369m 
 -493.57475m  189.2924m  700.0000m    1.9799m  887.3126m 
 -493.47475m  189.3095m  700.0000m    2.1213m  887.1882m 
 -493.37475m  189.3266m  700.0000m    2.2627m  887.0638m 
 -493.27475m  189.3437m  700.0000m    2.4042m  886.9395m 
 -493.17475m  189.3608m  700.0000m    2.5456m  886.8152m 
 -493.07475m  189.3779m  700.0000m    2.6870m  886.6909m 
 -492.97475m  189.3950m  700.0000m    2.8284m  886.5666m 
 -492.87475m  189.4121m  700.0000m    2.9698m  886.4423m 
 -492.77475m  189.4293m  700.0000m    3.1113m  886.3180m 
 -492.67475m  189.4464m  700.0000m    3.2527m  886.1937m 
 -492.57475m  189.4636m  700.0000m    3.3941m  886.0695m 
 -492.47475m  189.4807m  700.0000m    3.5355m  885.9452m 
 -492.37475m  189.4979m  700.0000m    3.6769m  885.8210m 
 -492.27475m  189.5151m  700.0000m    3.8184m  885.6967m 
 -492.17475m  189.5323m  700.0000m    3.9598m  885.5725m 
 -492.07475m  189.5495m  700.0000m    4.1012m  885.4483m 
 -491.97475m  189.5668m  700.0000m    4.2426m  885.3241m 
 -491.87475m  189.5840m  700.0000m    4.3841m  885.1999m 
 -491.77475m  189.6013m  700.0000m    4.5255m  885.0758m 
 -491.67475m  189.6185m  700.0000m    4.6669m  884.9516m 
 -491.57475m  189.6358m  700.0000m    4.8083m  884.8275m 
 -491.47475m  189.6531m  700.0000m    4.9497m  884.7033m 
 -491.37475m  189.6704m  700.0000m    5.0912m  884.5792m 
 -491.27475m  189.6877m  700.0000m    5.2326m  884.4551m 
 -491.17475m  189.7050m  700.0000m    5.3740m  884.3310m 
 -491.07475m  189.7223m  700.0000m    5.5154m  884.2069m 
 -490.97475m  189.7396m  700.0000m    5.6568m  884.0828m 
 -490.87475m  189.7570m  700.0000m    5.7983m  883.9587m 
 -490.77475m  189.7743m  700.0000m    5.9397m  883.8346m 
 -490.67475m  189.7917m  700.0000m    6.0811m  883.7106m 
 -490.57475m  189.8091m  700.0000m    6.2225m  883.5865m 
 -490.47475m  189.8265m  700.0000m    6.3640m  883.4625m 
 -490.37475m  189.8439m  700.0000m    6.5054m  883.3385m 
 -490.27475m  189.8613m  700.0000m    6.6468m  883.2145m 
 -490.17475m  189.8787m  700.0000m    6.7882m  883.0905m 
 -490.07475m  189.8962m  700.0000m    6.9296m  882.9665m 
 -489.97475m  189.9136m  700.0000m    7.0711m  882.8425m 
 -489.87475m  189.9311m  700.0000m    7.2125m  882.7186m 
 -489.77475m  189.9485m  700.0000m    7.3539m  882.5946m 
 -489.67475m  189.9660m  700.0000m    7.4953m  882.4707m 
 -489.57475m  189.9835m  700.0000m    7.6367m  882.3467m 
 -489.47475m  190.0010m  700.0000m    7.7782m  882.2228m 
 -489.37475m  190.0185m  700.0000m    7.9196m  882.0989m 
 -489.27475m  190.0360m  700.0000m    8.0610m  881.9750m 
 -489.17475m  190.0536m  700.0000m    8.2024m  881.8511m 
 -489.07475m  190.0711m  700.0000m    8.3438m  881.7273m 
 -488.97475m  190.0887m  700.0000m    8.4853m  881.6034m 
 -488.87475m  190.1062m  700.0000m    8.6267m  881.4795m 
 -488.77475m  190.1238m  700.0000m    8.7681m  881.3557m 
 -488.67475m  190.1414m  700.0000m    8.9095m  881.2319m 
 -488.57475m  190.1590m  700.0000m    9.0510m  881.1080m 
 -488.47475m  190.1766m  700.0000m    9.1924m  880.9842m 
 -488.37475m  190.1942m  700.0000m    9.3338m  880.8604m 
 -488.27475m  190.2119m  700.0000m    9.4752m  880.7366m 
 -488.17475m  190.2295m  700.0000m    9.6166m  880.6129m 
 -488.07475m  190.2472m  700.0000m    9.7581m  880.4891m 
 -487.97475m  190.2649m  700.0000m    9.8995m  880.3654m 
 -487.87475m  190.2825m  700.0000m   10.0409m  880.2416m 
 -487.77475m  190.3002m  700.0000m   10.1823m  880.1179m 
 -487.67475m  190.3179m  700.0000m   10.3237m  879.9942m 
 -487.57475m  190.3356m  700.0000m   10.4652m  879.8705m 
 -487.47475m  190.3534m  700.0000m   10.6066m  879.7468m 
 -487.37475m  190.3711m  700.0000m   10.7480m  879.6231m 
 -487.27475m  190.3888m  700.0000m   10.8894m  879.4994m 
 -487.17475m  190.4066m  700.0000m   11.0309m  879.3757m 
 -487.07475m  190.4244m  700.0000m   11.1723m  879.2521m 
 -486.97475m  190.4422m  700.0000m   11.3137m  879.1284m 
 -486.87475m  190.4600m  700.0000m   11.4551m  879.0048m 
 -486.77475m  190.4778m  700.0000m   11.5965m  878.8812m 
 -486.67475m  190.4956m  700.0000m   11.7380m  878.7576m 
 -486.57475m  190.5134m  700.0000m   11.8794m  878.6340m 
 -486.47475m  190.5312m  700.0000m   12.0208m  878.5104m 
 -486.37475m  190.5491m  700.0000m   12.1622m  878.3868m 
 -486.27475m  190.5669m  700.0000m   12.3036m  878.2633m 
 -486.17475m  190.5848m  700.0000m   12.4451m  878.1397m 
 -486.07475m  190.6027m  700.0000m   12.5865m  878.0162m 
 -485.97475m  190.6206m  700.0000m   12.7279m  877.8927m 
 -485.87475m  190.6385m  700.0000m   12.8693m  877.7692m 
 -485.77475m  190.6564m  700.0000m   13.0108m  877.6456m 
 -485.67475m  190.6743m  700.0000m   13.1522m  877.5222m 
 -485.57475m  190.6923m  700.0000m   13.2936m  877.3987m 
 -485.47475m  190.7102m  700.0000m   13.4350m  877.2752m 
 -485.37475m  190.7282m  700.0000m   13.5764m  877.1517m 
 -485.27475m  190.7462m  700.0000m   13.7179m  877.0283m 
 -485.17475m  190.7642m  700.0000m   13.8593m  876.9049m 
 -485.07475m  190.7822m  700.0000m   14.0007m  876.7814m 
 -484.97475m  190.8002m  700.0000m   14.1421m  876.6580m 
 -484.87475m  190.8182m  700.0000m   14.2835m  876.5346m 
 -484.77475m  190.8362m  700.0000m   14.4250m  876.4112m 
 -484.67475m  190.8543m  700.0000m   14.5664m  876.2879m 
 -484.57475m  190.8723m  700.0000m   14.7078m  876.1645m 
 -484.47475m  190.8904m  700.0000m   14.8492m  876.0411m 
 -484.37475m  190.9084m  700.0000m   14.9907m  875.9178m 
 -484.27475m  190.9265m  700.0000m   15.1321m  875.7945m 
 -484.17475m  190.9446m  700.0000m   15.2735m  875.6711m 
 -484.07475m  190.9627m  700.0000m   15.4149m  875.5478m 
 -483.97475m  190.9809m  700.0000m   15.5563m  875.4245m 
 -483.87475m  190.9990m  700.0000m   15.6978m  875.3012m 
 -483.77475m  191.0171m  700.0000m   15.8392m  875.1780m 
 -483.67475m  191.0353m  700.0000m   15.9806m  875.0547m 
 -483.57475m  191.0535m  700.0000m   16.1220m  874.9314m 
 -483.47475m  191.0717m  700.0000m   16.2634m  874.8082m 
 -483.37475m  191.0898m  700.0000m   16.4049m  874.6850m 
 -483.27475m  191.1081m  700.0000m   16.5463m  874.5618m 
 -483.17475m  191.1263m  700.0000m   16.6877m  874.4385m 
 -483.07475m  191.1445m  700.0000m   16.8291m  874.3154m 
 -482.97475m  191.1627m  700.0000m   16.9705m  874.1922m 
 -482.87475m  191.1810m  700.0000m   17.1120m  874.0690m 
 -482.77475m  191.1992m  700.0000m   17.2534m  873.9458m 
 -482.67475m  191.2175m  700.0000m   17.3948m  873.8227m 
 -482.57475m  191.2358m  700.0000m   17.5362m  873.6996m 
 -482.47475m  191.2541m  700.0000m   17.6777m  873.5764m 
 -482.37475m  191.2724m  700.0000m   17.8191m  873.4533m 
 -482.27475m  191.2907m  700.0000m   17.9605m  873.3302m 
 -482.17475m  191.3091m  700.0000m   18.1019m  873.2071m 
 -482.07475m  191.3274m  700.0000m   18.2433m  873.0840m 
 -481.97475m  191.3457m  700.0000m   18.3848m  872.9610m 
 -481.87475m  191.3641m  700.0000m   18.5262m  872.8379m 
 -481.77475m  191.3825m  700.0000m   18.6676m  872.7149m 
 -481.67475m  191.4009m  700.0000m   18.8090m  872.5918m 
 -481.57475m  191.4193m  700.0000m   18.9504m  872.4688m 
 -481.47475m  191.4377m  700.0000m   19.0919m  872.3458m 
 -481.37475m  191.4561m  700.0000m   19.2333m  872.2228m 
 -481.27475m  191.4746m  700.0000m   19.3747m  872.0998m 
 -481.17475m  191.4930m  700.0000m   19.5161m  871.9769m 
 -481.07475m  191.5115m  700.0000m   19.6576m  871.8539m 
 -480.97475m  191.5299m  700.0000m   19.7990m  871.7309m 
 -480.87475m  191.5484m  700.0000m   19.9404m  871.6080m 
 -480.77475m  191.5669m  700.0000m   20.0818m  871.4851m 
 -480.67475m  191.5854m  700.0000m   20.2232m  871.3622m 
 -480.57475m  191.6039m  700.0000m   20.3647m  871.2393m 
 -480.47475m  191.6225m  700.0000m   20.5061m  871.1164m 
 -480.37475m  191.6410m  700.0000m   20.6475m  870.9935m 
 -480.27475m  191.6596m  700.0000m   20.7889m  870.8706m 
 -480.17475m  191.6781m  700.0000m   20.9303m  870.7478m 
 -480.07475m  191.6967m  700.0000m   21.0718m  870.6249m 
 -479.97475m  191.7153m  700.0000m   21.2132m  870.5021m 
 -479.87475m  191.7339m  700.0000m   21.3546m  870.3793m 
 -479.77475m  191.7525m  700.0000m   21.4960m  870.2565m 
 -479.67475m  191.7711m  700.0000m   21.6375m  870.1337m 
 -479.57475m  191.7898m  700.0000m   21.7789m  870.0109m 
 -479.47475m  191.8084m  700.0000m   21.9203m  869.8881m 
 -479.37475m  191.8271m  700.0000m   22.0617m  869.7653m 
 -479.27475m  191.8457m  700.0000m   22.2031m  869.6426m 
 -479.17475m  191.8644m  700.0000m   22.3446m  869.5199m 
 -479.07475m  191.8831m  700.0000m   22.4860m  869.3971m 
 -478.97475m  191.9018m  700.0000m   22.6274m  869.2744m 
 -478.87475m  191.9205m  700.0000m   22.7688m  869.1517m 
 -478.77475m  191.9393m  700.0000m   22.9102m  869.0290m 
 -478.67475m  191.9580m  700.0000m   23.0517m  868.9063m 
 -478.57475m  191.9768m  700.0000m   23.1931m  868.7837m 
 -478.47475m  191.9955m  700.0000m   23.3345m  868.6610m 
 -478.37475m  192.0143m  700.0000m   23.4759m  868.5384m 
 -478.27475m  192.0331m  700.0000m   23.6173m  868.4157m 
 -478.17475m  192.0519m  700.0000m   23.7588m  868.2931m 
 -478.07475m  192.0707m  700.0000m   23.9002m  868.1705m 
 -477.97475m  192.0896m  700.0000m   24.0416m  868.0479m 
 -477.87475m  192.1084m  700.0000m   24.1830m  867.9253m 
 -477.77475m  192.1272m  700.0000m   24.3245m  867.8028m 
 -477.67475m  192.1461m  700.0000m   24.4659m  867.6802m 
 -477.57475m  192.1650m  700.0000m   24.6073m  867.5577m 
 -477.47475m  192.1839m  700.0000m   24.7487m  867.4351m 
 -477.37475m  192.2028m  700.0000m   24.8901m  867.3126m 
 -477.27475m  192.2217m  700.0000m   25.0316m  867.1901m 
 -477.17475m  192.2406m  700.0000m   25.1730m  867.0676m 
 -477.07475m  192.2595m  700.0000m   25.3144m  866.9451m 
 -476.97475m  192.2785m  700.0000m   25.4558m  866.8226m 
 -476.87475m  192.2974m  700.0000m   25.5972m  866.7002m 
 -476.77475m  192.3164m  700.0000m   25.7387m  866.5777m 
 -476.67475m  192.3354m  700.0000m   25.8801m  866.4553m 
 -476.57475m  192.3544m  700.0000m   26.0215m  866.3329m 
 -476.47475m  192.3734m  700.0000m   26.1629m  866.2104m 
 -476.37475m  192.3924m  700.0000m   26.3044m  866.0880m 
 -476.27475m  192.4114m  700.0000m   26.4458m  865.9656m 
 -476.17475m  192.4305m  700.0000m   26.5872m  865.8433m 
 -476.07475m  192.4495m  700.0000m   26.7286m  865.7209m 
 -475.97475m  192.4686m  700.0000m   26.8700m  865.5985m 
 -475.87475m  192.4877m  700.0000m   27.0115m  865.4762m 
 -475.77475m  192.5068m  700.0000m   27.1529m  865.3539m 
 -475.67475m  192.5259m  700.0000m   27.2943m  865.2316m 
 -475.57475m  192.5450m  700.0000m   27.4357m  865.1093m 
 -475.47475m  192.5641m  700.0000m   27.5771m  864.9870m 
 -475.37475m  192.5833m  700.0000m   27.7186m  864.8647m 
 -475.27475m  192.6024m  700.0000m   27.8600m  864.7424m 
 -475.17475m  192.6216m  700.0000m   28.0014m  864.6202m 
 -475.07475m  192.6408m  700.0000m   28.1428m  864.4979m 
 -474.97475m  192.6599m  700.0000m   28.2843m  864.3757m 
 -474.87475m  192.6791m  700.0000m   28.4257m  864.2535m 
 -474.77475m  192.6984m  700.0000m   28.5671m  864.1312m 
 -474.67475m  192.7176m  700.0000m   28.7085m  864.0090m 
 -474.57475m  192.7368m  700.0000m   28.8499m  863.8869m 
 -474.47475m  192.7561m  700.0000m   28.9914m  863.7647m 
 -474.37475m  192.7753m  700.0000m   29.1328m  863.6425m 
 -474.27475m  192.7946m  700.0000m   29.2742m  863.5204m 
 -474.17475m  192.8139m  700.0000m   29.4156m  863.3983m 
 -474.07475m  192.8332m  700.0000m   29.5570m  863.2761m 
 -473.97475m  192.8525m  700.0000m   29.6985m  863.1540m 
 -473.87475m  192.8718m  700.0000m   29.8399m  863.0319m 
 -473.77475m  192.8912m  700.0000m   29.9813m  862.9098m 
 -473.67475m  192.9105m  700.0000m   30.1227m  862.7878m 
 -473.57475m  192.9299m  700.0000m   30.2641m  862.6657m 
 -473.47475m  192.9492m  700.0000m   30.4056m  862.5437m 
 -473.37475m  192.9686m  700.0000m   30.5470m  862.4216m 
 -473.27475m  192.9880m  700.0000m   30.6884m  862.2996m 
 -473.17475m  193.0074m  700.0000m   30.8298m  862.1776m 
 -473.07475m  193.0269m  700.0000m   30.9713m  862.0556m 
 -472.97475m  193.0463m  700.0000m   31.1127m  861.9336m 
 -472.87475m  193.0657m  700.0000m   31.2541m  861.8116m 
 -472.77475m  193.0852m  700.0000m   31.3955m  861.6897m 
 -472.67475m  193.1047m  700.0000m   31.5369m  861.5677m 
 -472.57475m  193.1241m  700.0000m   31.6784m  861.4458m 
 -472.47475m  193.1436m  700.0000m   31.8198m  861.3238m 
 -472.37475m  193.1632m  700.0000m   31.9612m  861.2019m 
 -472.27475m  193.1827m  700.0000m   32.1026m  861.0800m 
 -472.17475m  193.2022m  700.0000m   32.2440m  860.9581m 
 -472.07475m  193.2218m  700.0000m   32.3855m  860.8363m 
 -471.97475m  193.2413m  700.0000m   32.5269m  860.7144m 
 -471.87475m  193.2609m  700.0000m   32.6683m  860.5925m 
 -471.77475m  193.2805m  700.0000m   32.8097m  860.4707m 
 -471.67475m  193.3001m  700.0000m   32.9512m  860.3489m 
 -471.57475m  193.3197m  700.0000m   33.0926m  860.2271m 
 -471.47475m  193.3393m  700.0000m   33.2340m  860.1053m 
 -471.37475m  193.3589m  700.0000m   33.3754m  859.9835m 
 -471.27475m  193.3786m  700.0000m   33.5168m  859.8617m 
 -471.17475m  193.3982m  700.0000m   33.6583m  859.7399m 
 -471.07475m  193.4179m  700.0000m   33.7997m  859.6182m 
 -470.97475m  193.4376m  700.0000m   33.9411m  859.4964m 
 -470.87475m  193.4573m  700.0000m   34.0825m  859.3747m 
 -470.77475m  193.4770m  700.0000m   34.2239m  859.2530m 
 -470.67475m  193.4967m  700.0000m   34.3654m  859.1313m 
 -470.57475m  193.5164m  700.0000m   34.5068m  859.0096m 
 -470.47475m  193.5362m  700.0000m   34.6482m  858.8879m 
 -470.37475m  193.5559m  700.0000m   34.7896m  858.7663m 
 -470.27475m  193.5757m  700.0000m   34.9310m  858.6446m 
 -470.17475m  193.5955m  700.0000m   35.0725m  858.5230m 
 -470.07475m  193.6153m  700.0000m   35.2139m  858.4014m 
 -469.97475m  193.6351m  700.0000m   35.3553m  858.2797m 
 -469.87475m  193.6549m  700.0000m   35.4967m  858.1581m 
 -469.77475m  193.6747m  700.0000m   35.6382m  858.0366m 
 -469.67475m  193.6946m  700.0000m   35.7796m  857.9150m 
 -469.57475m  193.7144m  700.0000m   35.9210m  857.7934m 
 -469.47475m  193.7343m  700.0000m   36.0624m  857.6719m 
 -469.37475m  193.7542m  700.0000m   36.2038m  857.5503m 
 -469.27475m  193.7741m  700.0000m   36.3453m  857.4288m 
 -469.17475m  193.7940m  700.0000m   36.4867m  857.3073m 
 -469.07475m  193.8139m  700.0000m   36.6281m  857.1858m 
 -468.97475m  193.8339m  700.0000m   36.7695m  857.0643m 
 -468.87475m  193.8538m  700.0000m   36.9109m  856.9428m 
 -468.77475m  193.8738m  700.0000m   37.0524m  856.8214m 
 -468.67475m  193.8937m  700.0000m   37.1938m  856.6999m 
 -468.57475m  193.9137m  700.0000m   37.3352m  856.5785m 
 -468.47475m  193.9337m  700.0000m   37.4766m  856.4571m 
 -468.37475m  193.9537m  700.0000m   37.6181m  856.3357m 
 -468.27475m  193.9738m  700.0000m   37.7595m  856.2143m 
 -468.17475m  193.9938m  700.0000m   37.9009m  856.0929m 
 -468.07475m  194.0138m  700.0000m   38.0423m  855.9715m 
 -467.97475m  194.0339m  700.0000m   38.1837m  855.8501m 
 -467.87475m  194.0540m  700.0000m   38.3252m  855.7288m 
 -467.77475m  194.0741m  700.0000m   38.4666m  855.6075m 
 -467.67475m  194.0942m  700.0000m   38.6080m  855.4861m 
 -467.57475m  194.1143m  700.0000m   38.7494m  855.3648m 
 -467.47475m  194.1344m  700.0000m   38.8908m  855.2435m 
 -467.37475m  194.1545m  700.0000m   39.0323m  855.1222m 
 -467.27475m  194.1747m  700.0000m   39.1737m  855.0010m 
 -467.17475m  194.1949m  700.0000m   39.3151m  854.8797m 
 -467.07475m  194.2150m  700.0000m   39.4565m  854.7585m 
 -466.97475m  194.2352m  700.0000m   39.5979m  854.6372m 
 -466.87475m  194.2554m  700.0000m   39.7394m  854.5160m 
 -466.77475m  194.2756m  700.0000m   39.8808m  854.3948m 
 -466.67475m  194.2959m  700.0000m   40.0222m  854.2736m 
 -466.57475m  194.3161m  700.0000m   40.1636m  854.1524m 
 -466.47475m  194.3364m  700.0000m   40.3051m  854.0313m 
 -466.37475m  194.3566m  700.0000m   40.4465m  853.9101m 
 -466.27475m  194.3769m  700.0000m   40.5879m  853.7890m 
 -466.17475m  194.3972m  700.0000m   40.7293m  853.6678m 
 -466.07475m  194.4175m  700.0000m   40.8707m  853.5467m 
 -465.97475m  194.4378m  700.0000m   41.0122m  853.4256m 
 -465.87475m  194.4581m  700.0000m   41.1536m  853.3045m 
 -465.77475m  194.4785m  700.0000m   41.2950m  853.1835m 
 -465.67475m  194.4988m  700.0000m   41.4364m  853.0624m 
 -465.57475m  194.5192m  700.0000m   41.5778m  852.9413m 
 -465.47475m  194.5396m  700.0000m   41.7193m  852.8203m 
 -465.37475m  194.5600m  700.0000m   41.8607m  852.6993m 
 -465.27475m  194.5804m  700.0000m   42.0021m  852.5783m 
 -465.17475m  194.6008m  700.0000m   42.1435m  852.4573m 
 -465.07475m  194.6213m  700.0000m   42.2850m  852.3363m 
 -464.97475m  194.6417m  700.0000m   42.4264m  852.2153m 
 -464.87475m  194.6622m  700.0000m   42.5678m  852.0943m 
 -464.77475m  194.6826m  700.0000m   42.7092m  851.9734m 
 -464.67475m  194.7031m  700.0000m   42.8506m  851.8525m 
 -464.57475m  194.7236m  700.0000m   42.9921m  851.7315m 
 -464.47475m  194.7441m  700.0000m   43.1335m  851.6106m 
 -464.37475m  194.7647m  700.0000m   43.2749m  851.4897m 
 -464.27475m  194.7852m  700.0000m   43.4163m  851.3688m 
 -464.17475m  194.8058m  700.0000m   43.5577m  851.2480m 
 -464.07475m  194.8263m  700.0000m   43.6992m  851.1271m 
 -463.97475m  194.8469m  700.0000m   43.8406m  851.0063m 
 -463.87475m  194.8675m  700.0000m   43.9820m  850.8854m 
 -463.77475m  194.8881m  700.0000m   44.1234m  850.7646m 
 -463.67475m  194.9087m  700.0000m   44.2648m  850.6438m 
 -463.57475m  194.9293m  700.0000m   44.4063m  850.5230m 
 -463.47475m  194.9500m  700.0000m   44.5477m  850.4023m 
 -463.37475m  194.9706m  700.0000m   44.6891m  850.2815m 
 -463.27475m  194.9913m  700.0000m   44.8305m  850.1607m 
 -463.17475m  195.0120m  700.0000m   44.9720m  850.0400m 
 -463.07475m  195.0327m  700.0000m   45.1134m  849.9193m 
 -462.97475m  195.0534m  700.0000m   45.2548m  849.7986m 
 -462.87475m  195.0741m  700.0000m   45.3962m  849.6779m 
 -462.77475m  195.0949m  700.0000m   45.5376m  849.5572m 
 -462.67475m  195.1156m  700.0000m   45.6791m  849.4365m 
 -462.57475m  195.1364m  700.0000m   45.8205m  849.3158m 
 -462.47475m  195.1571m  700.0000m   45.9619m  849.1952m 
 -462.37475m  195.1779m  700.0000m   46.1033m  849.0746m 
 -462.27475m  195.1987m  700.0000m   46.2447m  848.9539m 
 -462.17475m  195.2195m  700.0000m   46.3862m  848.8333m 
 -462.07475m  195.2404m  700.0000m   46.5276m  848.7127m 
 -461.97475m  195.2612m  700.0000m   46.6690m  848.5922m 
 -461.87475m  195.2821m  700.0000m   46.8104m  848.4716m 
 -461.77475m  195.3029m  700.0000m   46.9518m  848.3510m 
 -461.67475m  195.3238m  700.0000m   47.0933m  848.2305m 
 -461.57475m  195.3447m  700.0000m   47.2347m  848.1100m 
 -461.47475m  195.3656m  700.0000m   47.3761m  847.9895m 
 -461.37475m  195.3865m  700.0000m   47.5175m  847.8690m 
 -461.27475m  195.4075m  700.0000m   47.6590m  847.7485m 
 -461.17475m  195.4284m  700.0000m   47.8004m  847.6280m 
 -461.07475m  195.4494m  700.0000m   47.9418m  847.5075m 
 -460.97475m  195.4703m  700.0000m   48.0832m  847.3871m 
 -460.87475m  195.4913m  700.0000m   48.2246m  847.2666m 
 -460.77475m  195.5123m  700.0000m   48.3661m  847.1462m 
 -460.67475m  195.5333m  700.0000m   48.5075m  847.0258m 
 -460.57475m  195.5544m  700.0000m   48.6489m  846.9054m 
 -460.47475m  195.5754m  700.0000m   48.7903m  846.7850m 
 -460.37475m  195.5965m  700.0000m   48.9317m  846.6647m 
 -460.27475m  195.6175m  700.0000m   49.0732m  846.5443m 
 -460.17475m  195.6386m  700.0000m   49.2146m  846.4240m 
 -460.07475m  195.6597m  700.0000m   49.3560m  846.3037m 
 -459.97475m  195.6808m  700.0000m   49.4974m  846.1833m 
 -459.87475m  195.7019m  700.0000m   49.6389m  846.0630m 
 -459.77475m  195.7231m  700.0000m   49.7803m  845.9427m 
 -459.67475m  195.7442m  700.0000m   49.9217m  845.8225m 
 -459.57475m  195.7654m  700.0000m   50.0631m  845.7022m 
 -459.47475m  195.7865m  700.0000m   50.2045m  845.5820m 
 -459.37475m  195.8077m  700.0000m   50.3460m  845.4617m 
 -459.27475m  195.8289m  700.0000m   50.4874m  845.3415m 
 -459.17475m  195.8502m  700.0000m   50.6288m  845.2213m 
 -459.07475m  195.8714m  700.0000m   50.7702m  845.1011m 
 -458.97475m  195.8926m  700.0000m   50.9116m  844.9809m 
 -458.87475m  195.9139m  700.0000m   51.0531m  844.8608m 
 -458.77475m  195.9351m  700.0000m   51.1945m  844.7406m 
 -458.67475m  195.9564m  700.0000m   51.3359m  844.6205m 
 -458.57475m  195.9777m  700.0000m   51.4773m  844.5003m 
 -458.47475m  195.9990m  700.0000m   51.6187m  844.3802m 
 -458.37475m  196.0204m  700.0000m   51.7602m  844.2601m 
 -458.27475m  196.0417m  700.0000m   51.9016m  844.1401m 
 -458.17475m  196.0630m  700.0000m   52.0430m  844.0200m 
 -458.07475m  196.0844m  699.9999m   52.1844m  843.8999m 
 -457.97475m  196.1058m  699.9999m   52.3259m  843.7799m 
 -457.87475m  196.1272m  699.9999m   52.4673m  843.6598m 
 -457.77475m  196.1486m  699.9999m   52.6087m  843.5398m 
 -457.67475m  196.1700m  699.9999m   52.7501m  843.4198m 
 -457.57475m  196.1914m  699.9999m   52.8915m  843.2998m 
 -457.47475m  196.2129m  699.9999m   53.0330m  843.1799m 
 -457.37475m  196.2343m  699.9999m   53.1744m  843.0599m 
 -457.27475m  196.2558m  699.9999m   53.3158m  842.9399m 
 -457.17475m  196.2773m  699.9999m   53.4572m  842.8200m 
 -457.07475m  196.2988m  699.9999m   53.5986m  842.7001m 
 -456.97475m  196.3203m  699.9999m   53.7401m  842.5802m 
 -456.87475m  196.3418m  699.9999m   53.8815m  842.4603m 
 -456.77475m  196.3634m  699.9999m   54.0229m  842.3404m 
 -456.67475m  196.3849m  699.9999m   54.1643m  842.2205m 
 -456.57475m  196.4065m  699.9999m   54.3057m  842.1007m 
 -456.47475m  196.4281m  699.9999m   54.4472m  841.9808m 
 -456.37475m  196.4497m  699.9999m   54.5886m  841.8610m 
 -456.27475m  196.4713m  699.9999m   54.7300m  841.7412m 
 -456.17475m  196.4929m  699.9999m   54.8714m  841.6214m 
 -456.07475m  196.5145m  699.9999m   55.0129m  841.5016m 
 -455.97475m  196.5362m  699.9999m   55.1543m  841.3818m 
 -455.87475m  196.5578m  699.9999m   55.2957m  841.2621m 
 -455.77475m  196.5795m  699.9999m   55.4371m  841.1423m 
 -455.67475m  196.6012m  699.9999m   55.5785m  841.0226m 
 -455.57475m  196.6229m  699.9999m   55.7200m  840.9029m 
 -455.47475m  196.6446m  699.9999m   55.8614m  840.7832m 
 -455.37475m  196.6664m  699.9999m   56.0028m  840.6635m 
 -455.27475m  196.6881m  699.9999m   56.1442m  840.5438m 
 -455.17475m  196.7099m  699.9999m   56.2856m  840.4242m 
 -455.07475m  196.7316m  699.9999m   56.4271m  840.3045m 
 -454.97475m  196.7534m  699.9999m   56.5685m  840.1849m 
 -454.87475m  196.7752m  699.9999m   56.7099m  840.0653m 
 -454.77475m  196.7970m  699.9999m   56.8513m  839.9457m 
 -454.67475m  196.8189m  699.9999m   56.9927m  839.8261m 
 -454.57475m  196.8407m  699.9999m   57.1342m  839.7065m 
 -454.47475m  196.8626m  699.9999m   57.2756m  839.5869m 
 -454.37475m  196.8844m  699.9999m   57.4170m  839.4674m 
 -454.27475m  196.9063m  699.9999m   57.5584m  839.3478m 
 -454.17475m  196.9282m  699.9999m   57.6999m  839.2283m 
 -454.07475m  196.9501m  699.9999m   57.8413m  839.1088m 
 -453.97475m  196.9721m  699.9999m   57.9827m  838.9893m 
 -453.87475m  196.9940m  699.9999m   58.1241m  838.8698m 
 -453.77475m  197.0160m  699.9999m   58.2655m  838.7504m 
 -453.67475m  197.0379m  699.9999m   58.4070m  838.6309m 
 -453.57475m  197.0599m  699.9999m   58.5484m  838.5115m 
 -453.47475m  197.0819m  699.9999m   58.6898m  838.3920m 
 -453.37475m  197.1039m  699.9999m   58.8312m  838.2726m 
 -453.27475m  197.1259m  699.9999m   58.9726m  838.1532m 
 -453.17475m  197.1480m  699.9999m   59.1141m  838.0338m 
 -453.07475m  197.1700m  699.9999m   59.2555m  837.9145m 
 -452.97475m  197.1921m  699.9999m   59.3969m  837.7951m 
 -452.87475m  197.2142m  699.9999m   59.5383m  837.6758m 
 -452.77475m  197.2363m  699.9999m   59.6797m  837.5564m 
 -452.67475m  197.2584m  699.9999m   59.8212m  837.4371m 
 -452.57475m  197.2805m  699.9999m   59.9626m  837.3178m 
 -452.47475m  197.3026m  699.9999m   60.1040m  837.1985m 
 -452.37475m  197.3248m  699.9999m   60.2454m  837.0793m 
 -452.27475m  197.3469m  699.9999m   60.3869m  836.9600m 
 -452.17475m  197.3691m  699.9999m   60.5283m  836.8408m 
 -452.07475m  197.3913m  699.9999m   60.6697m  836.7215m 
 -451.97475m  197.4135m  699.9999m   60.8111m  836.6023m 
 -451.87475m  197.4357m  699.9999m   60.9525m  836.4831m 
 -451.77475m  197.4580m  699.9999m   61.0940m  836.3639m 
 -451.67475m  197.4802m  699.9999m   61.2354m  836.2448m 
 -451.57475m  197.5025m  699.9999m   61.3768m  836.1256m 
 -451.47475m  197.5247m  699.9999m   61.5182m  836.0065m 
 -451.37475m  197.5470m  699.9999m   61.6596m  835.8873m 
 -451.27475m  197.5693m  699.9999m   61.8011m  835.7682m 
 -451.17475m  197.5917m  699.9999m   61.9425m  835.6491m 
 -451.07475m  197.6140m  699.9999m   62.0839m  835.5300m 
 -450.97475m  197.6363m  699.9999m   62.2253m  835.4109m 
 -450.87475m  197.6587m  699.9999m   62.3667m  835.2919m 
 -450.77475m  197.6811m  699.9999m   62.5082m  835.1728m 
 -450.67475m  197.7035m  699.9999m   62.6496m  835.0538m 
 -450.57475m  197.7259m  699.9999m   62.7910m  834.9348m 
 -450.47475m  197.7483m  699.9999m   62.9324m  834.8158m 
 -450.37475m  197.7707m  699.9999m   63.0738m  834.6968m 
 -450.27475m  197.7932m  699.9999m   63.2153m  834.5778m 
 -450.17475m  197.8156m  699.9999m   63.3567m  834.4589m 
 -450.07475m  197.8381m  699.9999m   63.4981m  834.3399m 
 -449.97475m  197.8606m  699.9999m   63.6395m  834.2210m 
 -449.87475m  197.8831m  699.9999m   63.7810m  834.1021m 
 -449.77475m  197.9056m  699.9999m   63.9224m  833.9832m 
 -449.67475m  197.9281m  699.9999m   64.0638m  833.8643m 
 -449.57475m  197.9507m  699.9999m   64.2052m  833.7454m 
 -449.47475m  197.9732m  699.9999m   64.3466m  833.6265m 
 -449.37475m  197.9958m  699.9999m   64.4881m  833.5077m 
 -449.27475m  198.0184m  699.9999m   64.6295m  833.3888m 
 -449.17475m  198.0410m  699.9999m   64.7709m  833.2700m 
 -449.07475m  198.0636m  699.9999m   64.9123m  833.1512m 
 -448.97475m  198.0863m  699.9999m   65.0537m  833.0324m 
 -448.87475m  198.1089m  699.9999m   65.1952m  832.9137m 
 -448.77475m  198.1316m  699.9999m   65.3366m  832.7949m 
 -448.67475m  198.1542m  699.9999m   65.4780m  832.6762m 
 -448.57475m  198.1769m  699.9999m   65.6194m  832.5574m 
 -448.47475m  198.1996m  699.9999m   65.7608m  832.4387m 
 -448.37475m  198.2223m  699.9999m   65.9023m  832.3200m 
 -448.27475m  198.2451m  699.9999m   66.0437m  832.2013m 
 -448.17475m  198.2678m  699.9999m   66.1851m  832.0826m 
 -448.07475m  198.2906m  699.9999m   66.3265m  831.9640m 
 -447.97475m  198.3134m  699.9999m   66.4680m  831.8453m 
 -447.87475m  198.3362m  699.9999m   66.6094m  831.7267m 
 -447.77475m  198.3590m  699.9999m   66.7508m  831.6081m 
 -447.67475m  198.3818m  699.9999m   66.8922m  831.4895m 
 -447.57475m  198.4046m  699.9999m   67.0336m  831.3709m 
 -447.47475m  198.4275m  699.9999m   67.1751m  831.2523m 
 -447.37475m  198.4503m  699.9999m   67.3165m  831.1337m 
 -447.27475m  198.4732m  699.9999m   67.4579m  831.0152m 
 -447.17475m  198.4961m  699.9999m   67.5993m  830.8967m 
 -447.07475m  198.5190m  699.9999m   67.7407m  830.7782m 
 -446.97475m  198.5419m  699.9999m   67.8822m  830.6597m 
 -446.87475m  198.5648m  699.9999m   68.0236m  830.5412m 
 -446.77475m  198.5878m  699.9999m   68.1650m  830.4227m 
 -446.67475m  198.6108m  699.9999m   68.3064m  830.3042m 
 -446.57475m  198.6337m  699.9999m   68.4478m  830.1858m 
 -446.47475m  198.6567m  699.9999m   68.5893m  830.0674m 
 -446.37475m  198.6797m  699.9999m   68.7307m  829.9489m 
 -446.27475m  198.7027m  699.9999m   68.8721m  829.8305m 
 -446.17475m  198.7258m  699.9999m   69.0135m  829.7122m 
 -446.07475m  198.7488m  699.9999m   69.1549m  829.5938m 
 -445.97475m  198.7719m  699.9999m   69.2964m  829.4754m 
 -445.87475m  198.7950m  699.9999m   69.4378m  829.3571m 
 -445.77475m  198.8181m  699.9999m   69.5792m  829.2388m 
 -445.67475m  198.8412m  699.9999m   69.7206m  829.1205m 
 -445.57475m  198.8643m  699.9999m   69.8621m  829.0022m 
 -445.47475m  198.8874m  699.9999m   70.0035m  828.8839m 
 -445.37475m  198.9106m  699.9999m   70.1449m  828.7656m 
 -445.27475m  198.9338m  699.9999m   70.2863m  828.6473m 
 -445.17475m  198.9569m  699.9999m   70.4277m  828.5291m 
 -445.07475m  198.9801m  699.9999m   70.5692m  828.4109m 
 -444.97475m  199.0034m  699.9999m   70.7106m  828.2927m 
 -444.87475m  199.0266m  699.9999m   70.8520m  828.1745m 
 -444.77475m  199.0498m  699.9999m   70.9934m  828.0563m 
 -444.67475m  199.0731m  699.9999m   71.1348m  827.9381m 
 -444.57475m  199.0963m  699.9999m   71.2763m  827.8200m 
 -444.47475m  199.1196m  699.9999m   71.4177m  827.7018m 
 -444.37475m  199.1429m  699.9999m   71.5591m  827.5837m 
 -444.27475m  199.1662m  699.9999m   71.7005m  827.4656m 
 -444.17475m  199.1896m  699.9999m   71.8419m  827.3475m 
 -444.07475m  199.2129m  699.9999m   71.9834m  827.2294m 
 -443.97475m  199.2363m  699.9999m   72.1248m  827.1114m 
 -443.87475m  199.2596m  699.9999m   72.2662m  826.9933m 
 -443.77475m  199.2830m  699.9999m   72.4076m  826.8753m 
 -443.67475m  199.3064m  699.9999m   72.5490m  826.7573m 
 -443.57475m  199.3299m  699.9999m   72.6905m  826.6393m 
 -443.47475m  199.3533m  699.9999m   72.8319m  826.5213m 
 -443.37475m  199.3767m  699.9999m   72.9733m  826.4033m 
 -443.27475m  199.4002m  699.9999m   73.1147m  826.2853m 
 -443.17475m  199.4237m  699.9999m   73.2561m  826.1674m 
 -443.07475m  199.4472m  699.9999m   73.3976m  826.0495m 
 -442.97475m  199.4707m  699.9999m   73.5390m  825.9316m 
 -442.87475m  199.4942m  699.9999m   73.6804m  825.8137m 
 -442.77475m  199.5177m  699.9999m   73.8218m  825.6958m 
 -442.67475m  199.5413m  699.9999m   73.9633m  825.5779m 
 -442.57475m  199.5648m  699.9999m   74.1047m  825.4600m 
 -442.47475m  199.5884m  699.9999m   74.2461m  825.3422m 
 -442.37475m  199.6120m  699.9999m   74.3875m  825.2244m 
 -442.27475m  199.6356m  699.9999m   74.5289m  825.1066m 
 -442.17475m  199.6592m  699.9999m   74.6704m  824.9888m 
 -442.07475m  199.6829m  699.9999m   74.8118m  824.8710m 
 -441.97475m  199.7065m  699.9999m   74.9532m  824.7532m 
 -441.87475m  199.7302m  699.9999m   75.0946m  824.6355m 
 -441.77475m  199.7539m  699.9999m   75.2360m  824.5177m 
 -441.67475m  199.7776m  699.9999m   75.3775m  824.4000m 
 -441.57475m  199.8013m  699.9999m   75.5189m  824.2823m 
 -441.47475m  199.8250m  699.9999m   75.6603m  824.1646m 
 -441.37475m  199.8488m  699.9999m   75.8017m  824.0469m 
 -441.27475m  199.8725m  699.9999m   75.9431m  823.9293m 
 -441.17475m  199.8963m  699.9999m   76.0846m  823.8116m 
 -441.07475m  199.9201m  699.9999m   76.2260m  823.6940m 
 -440.97475m  199.9439m  699.9999m   76.3674m  823.5764m 
 -440.87475m  199.9677m  699.9999m   76.5088m  823.4588m 
 -440.77475m  199.9916m  699.9999m   76.6502m  823.3412m 
 -440.67475m  200.0154m  699.9999m   76.7917m  823.2236m 
 -440.57475m  200.0393m  699.9999m   76.9331m  823.1061m 
 -440.47475m  200.0632m  699.9999m   77.0745m  822.9885m 
 -440.37475m  200.0871m  699.9999m   77.2159m  822.8710m 
 -440.27475m  200.1110m  699.9999m   77.3573m  822.7535m 
 -440.17475m  200.1349m  699.9999m   77.4988m  822.6360m 
 -440.07475m  200.1588m  699.9999m   77.6402m  822.5185m 
 -439.97475m  200.1828m  699.9999m   77.7816m  822.4010m 
 -439.87475m  200.2067m  699.9999m   77.9230m  822.2836m 
 -439.77475m  200.2307m  699.9999m   78.0645m  822.1661m 
 -439.67475m  200.2547m  699.9999m   78.2059m  822.0487m 
 -439.57475m  200.2787m  699.9999m   78.3473m  821.9313m 
 -439.47475m  200.3028m  699.9999m   78.4887m  821.8139m 
 -439.37475m  200.3268m  699.9999m   78.6301m  821.6966m 
 -439.27475m  200.3509m  699.9999m   78.7716m  821.5792m 
 -439.17475m  200.3750m  699.9999m   78.9130m  821.4618m 
 -439.07475m  200.3991m  699.9999m   79.0544m  821.3445m 
 -438.97475m  200.4232m  699.9999m   79.1958m  821.2272m 
 -438.87475m  200.4473m  699.9999m   79.3372m  821.1099m 
 -438.77475m  200.4714m  699.9999m   79.4787m  820.9926m 
 -438.67475m  200.4956m  699.9999m   79.6201m  820.8753m 
 -438.57475m  200.5197m  699.9999m   79.7615m  820.7581m 
 -438.47475m  200.5439m  699.9999m   79.9029m  820.6409m 
 -438.37475m  200.5681m  699.9999m   80.0443m  820.5236m 
 -438.27475m  200.5923m  699.9998m   80.1858m  820.4064m 
 -438.17475m  200.6166m  699.9998m   80.3272m  820.2892m 
 -438.07475m  200.6408m  699.9998m   80.4686m  820.1720m 
 -437.97475m  200.6651m  699.9998m   80.6100m  820.0549m 
 -437.87475m  200.6893m  699.9998m   80.7514m  819.9377m 
 -437.77475m  200.7136m  699.9998m   80.8929m  819.8206m 
 -437.67475m  200.7379m  699.9998m   81.0343m  819.7035m 
 -437.57475m  200.7622m  699.9998m   81.1757m  819.5864m 
 -437.47475m  200.7866m  699.9998m   81.3171m  819.4693m 
 -437.37475m  200.8109m  699.9998m   81.4585m  819.3522m 
 -437.27475m  200.8353m  699.9998m   81.6000m  819.2352m 
 -437.17475m  200.8597m  699.9998m   81.7414m  819.1181m 
 -437.07475m  200.8841m  699.9998m   81.8828m  819.0011m 
 -436.97475m  200.9085m  699.9998m   82.0242m  818.8841m 
 -436.87475m  200.9329m  699.9998m   82.1656m  818.7671m 
 -436.77475m  200.9573m  699.9998m   82.3071m  818.6501m 
 -436.67475m  200.9818m  699.9998m   82.4485m  818.5332m 
 -436.57475m  201.0063m  699.9998m   82.5899m  818.4162m 
 -436.47475m  201.0308m  699.9998m   82.7313m  818.2993m 
 -436.37475m  201.0553m  699.9998m   82.8727m  818.1824m 
 -436.27475m  201.0798m  699.9998m   83.0142m  818.0655m 
 -436.17475m  201.1043m  699.9998m   83.1556m  817.9486m 
 -436.07475m  201.1289m  699.9998m   83.2970m  817.8317m 
 -435.97475m  201.1534m  699.9998m   83.4384m  817.7148m 
 -435.87475m  201.1780m  699.9998m   83.5798m  817.5980m 
 -435.77475m  201.2026m  699.9998m   83.7213m  817.4812m 
 -435.67475m  201.2272m  699.9998m   83.8627m  817.3644m 
 -435.57475m  201.2519m  699.9998m   84.0041m  817.2476m 
 -435.47475m  201.2765m  699.9998m   84.1455m  817.1308m 
 -435.37475m  201.3012m  699.9998m   84.2870m  817.0140m 
 -435.27475m  201.3258m  699.9998m   84.4284m  816.8973m 
 -435.17475m  201.3505m  699.9998m   84.5698m  816.7805m 
 -435.07475m  201.3752m  699.9998m   84.7112m  816.6638m 
 -434.97475m  201.3999m  699.9998m   84.8526m  816.5471m 
 -434.87475m  201.4247m  699.9998m   84.9941m  816.4304m 
 -434.77475m  201.4494m  699.9998m   85.1355m  816.3138m 
 -434.67475m  201.4742m  699.9998m   85.2769m  816.1971m 
 -434.57475m  201.4990m  699.9998m   85.4183m  816.0805m 
 -434.47475m  201.5238m  699.9998m   85.5597m  815.9639m 
 -434.37475m  201.5486m  699.9998m   85.7012m  815.8472m 
 -434.27475m  201.5734m  699.9998m   85.8426m  815.7307m 
 -434.17475m  201.5983m  699.9998m   85.9840m  815.6141m 
 -434.07475m  201.6231m  699.9998m   86.1254m  815.4975m 
 -433.97475m  201.6480m  699.9998m   86.2668m  815.3810m 
 -433.87475m  201.6729m  699.9998m   86.4083m  815.2644m 
 -433.77475m  201.6978m  699.9998m   86.5497m  815.1479m 
 -433.67475m  201.7227m  699.9998m   86.6911m  815.0314m 
 -433.57475m  201.7477m  699.9998m   86.8325m  814.9149m 
 -433.47475m  201.7726m  699.9998m   86.9739m  814.7985m 
 -433.37475m  201.7976m  699.9998m   87.1154m  814.6820m 
 -433.27475m  201.8226m  699.9998m   87.2568m  814.5656m 
 -433.17475m  201.8476m  699.9998m   87.3982m  814.4492m 
 -433.07475m  201.8726m  699.9998m   87.5396m  814.3328m 
 -432.97475m  201.8976m  699.9998m   87.6810m  814.2164m 
 -432.87475m  201.9227m  699.9998m   87.8225m  814.1000m 
 -432.77475m  201.9477m  699.9998m   87.9639m  813.9836m 
 -432.67475m  201.9728m  699.9998m   88.1053m  813.8673m 
 -432.57475m  201.9979m  699.9998m   88.2467m  813.7510m 
 -432.47475m  202.0230m  699.9998m   88.3881m  813.6347m 
 -432.37475m  202.0481m  699.9998m   88.5296m  813.5184m 
 -432.27475m  202.0733m  699.9998m   88.6710m  813.4021m 
 -432.17475m  202.0984m  699.9998m   88.8124m  813.2858m 
 -432.07475m  202.1236m  699.9998m   88.9538m  813.1696m 
 -431.97475m  202.1488m  699.9998m   89.0952m  813.0533m 
 -431.87475m  202.1740m  699.9998m   89.2367m  812.9371m 
 -431.77475m  202.1992m  699.9998m   89.3781m  812.8209m 
 -431.67475m  202.2245m  699.9998m   89.5195m  812.7047m 
 -431.57475m  202.2497m  699.9998m   89.6609m  812.5886m 
 -431.47475m  202.2750m  699.9998m   89.8023m  812.4724m 
 -431.37475m  202.3003m  699.9998m   89.9438m  812.3563m 
 -431.27475m  202.3256m  699.9998m   90.0852m  812.2402m 
 -431.17475m  202.3509m  699.9998m   90.2266m  812.1241m 
 -431.07475m  202.3762m  699.9998m   90.3680m  812.0080m 
 -430.97475m  202.4016m  699.9998m   90.5094m  811.8919m 
 -430.87475m  202.4269m  699.9998m   90.6509m  811.7758m 
 -430.77475m  202.4523m  699.9998m   90.7923m  811.6598m 
 -430.67475m  202.4777m  699.9998m   90.9337m  811.5438m 
 -430.57475m  202.5031m  699.9998m   91.0751m  811.4278m 
 -430.47475m  202.5285m  699.9998m   91.2165m  811.3118m 
 -430.37475m  202.5540m  699.9998m   91.3580m  811.1958m 
 -430.27475m  202.5794m  699.9998m   91.4994m  811.0798m 
 -430.17475m  202.6049m  699.9998m   91.6408m  810.9639m 
 -430.07475m  202.6304m  699.9998m   91.7822m  810.8479m 
 -429.97475m  202.6559m  699.9998m   91.9236m  810.7320m 
 -429.87475m  202.6814m  699.9998m   92.0651m  810.6161m 
 -429.77475m  202.7070m  699.9998m   92.2065m  810.5002m 
 -429.67475m  202.7325m  699.9998m   92.3479m  810.3844m 
 -429.57475m  202.7581m  699.9998m   92.4893m  810.2685m 
 -429.47475m  202.7837m  699.9998m   92.6307m  810.1527m 
 -429.37475m  202.8093m  699.9998m   92.7722m  810.0369m 
 -429.27475m  202.8349m  699.9997m   92.9136m  809.9211m 
 -429.17475m  202.8605m  699.9997m   93.0550m  809.8053m 
 -429.07475m  202.8862m  699.9997m   93.1964m  809.6895m 
 -428.97475m  202.9119m  699.9997m   93.3378m  809.5738m 
 -428.87475m  202.9375m  699.9997m   93.4793m  809.4580m 
 -428.77475m  202.9632m  699.9997m   93.6207m  809.3423m 
 -428.67475m  202.9889m  699.9997m   93.7621m  809.2266m 
 -428.57475m  203.0147m  699.9997m   93.9035m  809.1109m 
 -428.47475m  203.0404m  699.9997m   94.0449m  808.9952m 
 -428.37475m  203.0662m  699.9997m   94.1864m  808.8796m 
 -428.27475m  203.0920m  699.9997m   94.3278m  808.7639m 
 -428.17475m  203.1178m  699.9997m   94.4692m  808.6483m 
 -428.07475m  203.1436m  699.9997m   94.6106m  808.5327m 
 -427.97475m  203.1694m  699.9997m   94.7520m  808.4171m 
 -427.87475m  203.1952m  699.9997m   94.8935m  808.3015m 
 -427.77475m  203.2211m  699.9997m   95.0349m  808.1860m 
 -427.67475m  203.2470m  699.9997m   95.1763m  808.0704m 
 -427.57475m  203.2729m  699.9997m   95.3177m  807.9549m 
 -427.47475m  203.2988m  699.9997m   95.4591m  807.8394m 
 -427.37475m  203.3247m  699.9997m   95.6006m  807.7239m 
 -427.27475m  203.3506m  699.9997m   95.7420m  807.6084m 
 -427.17475m  203.3766m  699.9997m   95.8834m  807.4929m 
 -427.07475m  203.4026m  699.9997m   96.0248m  807.3775m 
 -426.97475m  203.4286m  699.9997m   96.1662m  807.2620m 
 -426.87475m  203.4546m  699.9997m   96.3077m  807.1466m 
 -426.77475m  203.4806m  699.9997m   96.4491m  807.0312m 
 -426.67475m  203.5066m  699.9997m   96.5905m  806.9158m 
 -426.57475m  203.5327m  699.9997m   96.7319m  806.8005m 
 -426.47475m  203.5587m  699.9997m   96.8733m  806.6851m 
 -426.37475m  203.5848m  699.9997m   97.0148m  806.5698m 
 -426.27475m  203.6109m  699.9997m   97.1562m  806.4545m 
 -426.17475m  203.6371m  699.9997m   97.2976m  806.3392m 
 -426.07475m  203.6632m  699.9997m   97.4390m  806.2239m 
 -425.97475m  203.6893m  699.9997m   97.5804m  806.1086m 
 -425.87475m  203.7155m  699.9997m   97.7219m  805.9934m 
 -425.77475m  203.7417m  699.9997m   97.8633m  805.8781m 
 -425.67475m  203.7679m  699.9997m   98.0047m  805.7629m 
 -425.57475m  203.7941m  699.9997m   98.1461m  805.6477m 
 -425.47475m  203.8203m  699.9997m   98.2875m  805.5325m 
 -425.37475m  203.8466m  699.9997m   98.4290m  805.4173m 
 -425.27475m  203.8729m  699.9997m   98.5704m  805.3022m 
 -425.17475m  203.8991m  699.9997m   98.7118m  805.1870m 
 -425.07475m  203.9254m  699.9997m   98.8532m  805.0719m 
 -424.97475m  203.9518m  699.9997m   98.9946m  804.9568m 
 -424.87475m  203.9781m  699.9997m   99.1360m  804.8417m 
 -424.77475m  204.0044m  699.9997m   99.2775m  804.7266m 
 -424.67475m  204.0308m  699.9997m   99.4189m  804.6116m 
 -424.57475m  204.0572m  699.9997m   99.5603m  804.4965m 
 -424.47475m  204.0836m  699.9997m   99.7017m  804.3815m 
 -424.37475m  204.1100m  699.9997m   99.8431m  804.2665m 
 -424.27475m  204.1364m  699.9997m   99.9846m  804.1515m 
 -424.17475m  204.1629m  699.9997m  100.1260m  804.0365m 
 -424.07475m  204.1893m  699.9997m  100.2674m  803.9216m 
 -423.97475m  204.2158m  699.9997m  100.4088m  803.8066m 
 -423.87475m  204.2423m  699.9997m  100.5502m  803.6917m 
 -423.77475m  204.2688m  699.9997m  100.6917m  803.5768m 
 -423.67475m  204.2953m  699.9997m  100.8331m  803.4619m 
 -423.57475m  204.3219m  699.9997m  100.9745m  803.3470m 
 -423.47475m  204.3484m  699.9997m  101.1159m  803.2322m 
 -423.37475m  204.3750m  699.9997m  101.2573m  803.1173m 
 -423.27475m  204.4016m  699.9996m  101.3988m  803.0025m 
 -423.17475m  204.4282m  699.9996m  101.5402m  802.8877m 
 -423.07475m  204.4549m  699.9996m  101.6816m  802.7729m 
 -422.97475m  204.4815m  699.9996m  101.8230m  802.6581m 
 -422.87475m  204.5082m  699.9996m  101.9644m  802.5434m 
 -422.77475m  204.5348m  699.9996m  102.1059m  802.4286m 
 -422.67475m  204.5615m  699.9996m  102.2473m  802.3139m 
 -422.57475m  204.5882m  699.9996m  102.3887m  802.1992m 
 -422.47475m  204.6150m  699.9996m  102.5301m  802.0845m 
 -422.37475m  204.6417m  699.9996m  102.6715m  801.9698m 
 -422.27475m  204.6685m  699.9996m  102.8130m  801.8551m 
 -422.17475m  204.6952m  699.9996m  102.9544m  801.7405m 
 -422.07475m  204.7220m  699.9996m  103.0958m  801.6259m 
 -421.97475m  204.7489m  699.9996m  103.2372m  801.5113m 
 -421.87475m  204.7757m  699.9996m  103.3786m  801.3967m 
 -421.77475m  204.8025m  699.9996m  103.5200m  801.2821m 
 -421.67475m  204.8294m  699.9996m  103.6615m  801.1675m 
 -421.57475m  204.8563m  699.9996m  103.8029m  801.0530m 
 -421.47475m  204.8831m  699.9996m  103.9443m  800.9385m 
 -421.37475m  204.9101m  699.9996m  104.0857m  800.8239m 
 -421.27475m  204.9370m  699.9996m  104.2271m  800.7094m 
 -421.17475m  204.9639m  699.9996m  104.3686m  800.5950m 
 -421.07475m  204.9909m  699.9996m  104.5100m  800.4805m 
 -420.97475m  205.0179m  699.9996m  104.6514m  800.3661m 
 -420.87475m  205.0449m  699.9996m  104.7928m  800.2516m 
 -420.77475m  205.0719m  699.9996m  104.9342m  800.1372m 
 -420.67475m  205.0989m  699.9996m  105.0757m  800.0228m 
 -420.57475m  205.1259m  699.9996m  105.2171m  799.9084m 
 -420.47475m  205.1530m  699.9996m  105.3585m  799.7941m 
 -420.37475m  205.1801m  699.9996m  105.4999m  799.6797m 
 -420.27475m  205.2072m  699.9996m  105.6413m  799.5654m 
 -420.17475m  205.2343m  699.9996m  105.7828m  799.4511m 
 -420.07475m  205.2614m  699.9996m  105.9242m  799.3368m 
 -419.97475m  205.2886m  699.9996m  106.0656m  799.2225m 
 -419.87475m  205.3157m  699.9996m  106.2070m  799.1083m 
 -419.77475m  205.3429m  699.9996m  106.3484m  798.9940m 
 -419.67475m  205.3701m  699.9996m  106.4898m  798.8798m 
 -419.57475m  205.3973m  699.9996m  106.6313m  798.7656m 
 -419.47475m  205.4245m  699.9996m  106.7727m  798.6514m 
 -419.37475m  205.4518m  699.9996m  106.9141m  798.5372m 
 -419.27475m  205.4790m  699.9996m  107.0555m  798.4231m 
 -419.17475m  205.5063m  699.9996m  107.1969m  798.3089m 
 -419.07475m  205.5336m  699.9996m  107.3384m  798.1948m 
 -418.97475m  205.5609m  699.9996m  107.4798m  798.0807m 
 -418.87475m  205.5882m  699.9995m  107.6212m  797.9666m 
 -418.77475m  205.6156m  699.9995m  107.7626m  797.8525m 
 -418.67475m  205.6430m  699.9995m  107.9040m  797.7385m 
 -418.57475m  205.6703m  699.9995m  108.0455m  797.6244m 
 -418.47475m  205.6977m  699.9995m  108.1869m  797.5104m 
 -418.37475m  205.7251m  699.9995m  108.3283m  797.3964m 
 -418.27475m  205.7526m  699.9995m  108.4697m  797.2824m 
 -418.17475m  205.7800m  699.9995m  108.6111m  797.1684m 
 -418.07475m  205.8075m  699.9995m  108.7525m  797.0545m 
 -417.97475m  205.8350m  699.9995m  108.8940m  796.9405m 
 -417.87475m  205.8625m  699.9995m  109.0354m  796.8266m 
 -417.77475m  205.8900m  699.9995m  109.1768m  796.7127m 
 -417.67475m  205.9175m  699.9995m  109.3182m  796.5988m 
 -417.57475m  205.9451m  699.9995m  109.4596m  796.4849m 
 -417.47475m  205.9726m  699.9995m  109.6011m  796.3711m 
 -417.37475m  206.0002m  699.9995m  109.7425m  796.2573m 
 -417.27475m  206.0278m  699.9995m  109.8839m  796.1434m 
 -417.17475m  206.0554m  699.9995m  110.0253m  796.0296m 
 -417.07475m  206.0831m  699.9995m  110.1667m  795.9158m 
 -416.97475m  206.1107m  699.9995m  110.3082m  795.8021m 
 -416.87475m  206.1384m  699.9995m  110.4496m  795.6883m 
 -416.77475m  206.1661m  699.9995m  110.5910m  795.5746m 
 -416.67475m  206.1938m  699.9995m  110.7324m  795.4609m 
 -416.57475m  206.2215m  699.9995m  110.8738m  795.3472m 
 -416.47475m  206.2492m  699.9995m  111.0152m  795.2335m 
 -416.37475m  206.2770m  699.9995m  111.1567m  795.1198m 
 -416.27475m  206.3048m  699.9995m  111.2981m  795.0062m 
 -416.17475m  206.3326m  699.9995m  111.4395m  794.8925m 
 -416.07475m  206.3604m  699.9995m  111.5809m  794.7789m 
 -415.97475m  206.3882m  699.9995m  111.7223m  794.6653m 
 -415.87475m  206.4160m  699.9995m  111.8638m  794.5517m 
 -415.77475m  206.4439m  699.9995m  112.0052m  794.4382m 
 -415.67475m  206.4718m  699.9995m  112.1466m  794.3246m 
 -415.57475m  206.4997m  699.9995m  112.2880m  794.2111m 
 -415.47475m  206.5276m  699.9995m  112.4294m  794.0976m 
 -415.37475m  206.5555m  699.9994m  112.5708m  793.9841m 
 -415.27475m  206.5834m  699.9994m  112.7123m  793.8706m 
 -415.17475m  206.6114m  699.9994m  112.8537m  793.7571m 
 -415.07475m  206.6394m  699.9994m  112.9951m  793.6437m 
 -414.97475m  206.6674m  699.9994m  113.1365m  793.5303m 
 -414.87475m  206.6954m  699.9994m  113.2779m  793.4169m 
 -414.77475m  206.7234m  699.9994m  113.4194m  793.3035m 
 -414.67475m  206.7515m  699.9994m  113.5608m  793.1901m 
 -414.57475m  206.7795m  699.9994m  113.7022m  793.0767m 
 -414.47475m  206.8076m  699.9994m  113.8436m  792.9634m 
 -414.37475m  206.8357m  699.9994m  113.9850m  792.8501m 
 -414.27475m  206.8638m  699.9994m  114.1264m  792.7368m 
 -414.17475m  206.8919m  699.9994m  114.2679m  792.6235m 
 -414.07475m  206.9201m  699.9994m  114.4093m  792.5102m 
 -413.97475m  206.9483m  699.9994m  114.5507m  792.3970m 
 -413.87475m  206.9764m  699.9994m  114.6921m  792.2837m 
 -413.77475m  207.0046m  699.9994m  114.8335m  792.1705m 
 -413.67475m  207.0329m  699.9994m  114.9750m  792.0573m 
 -413.57475m  207.0611m  699.9994m  115.1164m  791.9441m 
 -413.47475m  207.0894m  699.9994m  115.2578m  791.8310m 
 -413.37475m  207.1176m  699.9994m  115.3992m  791.7178m 
 -413.27475m  207.1459m  699.9994m  115.5406m  791.6047m 
 -413.17475m  207.1742m  699.9994m  115.6820m  791.4916m 
 -413.07475m  207.2025m  699.9994m  115.8235m  791.3785m 
 -412.97475m  207.2309m  699.9994m  115.9649m  791.2654m 
 -412.87475m  207.2592m  699.9994m  116.1063m  791.1523m 
 -412.77475m  207.2876m  699.9994m  116.2477m  791.0393m 
 -412.67475m  207.3160m  699.9994m  116.3891m  790.9262m 
 -412.57475m  207.3444m  699.9994m  116.5305m  790.8132m 
 -412.47475m  207.3729m  699.9993m  116.6720m  790.7002m 
 -412.37475m  207.4013m  699.9993m  116.8134m  790.5873m 
 -412.27475m  207.4298m  699.9993m  116.9548m  790.4743m 
 -412.17475m  207.4582m  699.9993m  117.0962m  790.3614m 
 -412.07475m  207.4867m  699.9993m  117.2376m  790.2484m 
 -411.97475m  207.5153m  699.9993m  117.3791m  790.1355m 
 -411.87475m  207.5438m  699.9993m  117.5205m  790.0226m 
 -411.77475m  207.5723m  699.9993m  117.6619m  789.9098m 
 -411.67475m  207.6009m  699.9993m  117.8033m  789.7969m 
 -411.57475m  207.6295m  699.9993m  117.9447m  789.6841m 
 -411.47475m  207.6581m  699.9993m  118.0861m  789.5713m 
 -411.37475m  207.6867m  699.9993m  118.2276m  789.4585m 
 -411.27475m  207.7153m  699.9993m  118.3690m  789.3457m 
 -411.17475m  207.7440m  699.9993m  118.5104m  789.2329m 
 -411.07475m  207.7727m  699.9993m  118.6518m  789.1202m 
 -410.97475m  207.8014m  699.9993m  118.7932m  789.0074m 
 -410.87475m  207.8301m  699.9993m  118.9346m  788.8947m 
 -410.77475m  207.8588m  699.9993m  119.0761m  788.7820m 
 -410.67475m  207.8875m  699.9993m  119.2175m  788.6693m 
 -410.57475m  207.9163m  699.9993m  119.3589m  788.5567m 
 -410.47475m  207.9451m  699.9993m  119.5003m  788.4440m 
 -410.37475m  207.9739m  699.9993m  119.6417m  788.3314m 
 -410.27475m  208.0027m  699.9993m  119.7831m  788.2188m 
 -410.17475m  208.0315m  699.9993m  119.9246m  788.1062m 
 -410.07475m  208.0604m  699.9993m  120.0660m  787.9936m 
 -409.97475m  208.0892m  699.9992m  120.2074m  787.8811m 
 -409.87475m  208.1181m  699.9992m  120.3488m  787.7685m 
 -409.77475m  208.1470m  699.9992m  120.4902m  787.6560m 
 -409.67475m  208.1759m  699.9992m  120.6316m  787.5435m 
 -409.57475m  208.2049m  699.9992m  120.7731m  787.4310m 
 -409.47475m  208.2338m  699.9992m  120.9145m  787.3186m 
 -409.37475m  208.2628m  699.9992m  121.0559m  787.2061m 
 -409.27475m  208.2918m  699.9992m  121.1973m  787.0937m 
 -409.17475m  208.3208m  699.9992m  121.3387m  786.9813m 
 -409.07475m  208.3498m  699.9992m  121.4802m  786.8689m 
 -408.97475m  208.3789m  699.9992m  121.6216m  786.7565m 
 -408.87475m  208.4079m  699.9992m  121.7630m  786.6441m 
 -408.77475m  208.4370m  699.9992m  121.9044m  786.5318m 
 -408.67475m  208.4661m  699.9992m  122.0458m  786.4195m 
 -408.57475m  208.4952m  699.9992m  122.1872m  786.3072m 
 -408.47475m  208.5244m  699.9992m  122.3287m  786.1949m 
 -408.37475m  208.5535m  699.9992m  122.4701m  786.0826m 
 -408.27475m  208.5827m  699.9992m  122.6115m  785.9704m 
 -408.17475m  208.6119m  699.9992m  122.7529m  785.8581m 
 -408.07475m  208.6411m  699.9992m  122.8943m  785.7459m 
 -407.97475m  208.6703m  699.9992m  123.0357m  785.6337m 
 -407.87475m  208.6995m  699.9991m  123.1772m  785.5215m 
 -407.77475m  208.7288m  699.9991m  123.3186m  785.4094m 
 -407.67475m  208.7580m  699.9991m  123.4600m  785.2972m 
 -407.57475m  208.7873m  699.9991m  123.6014m  785.1851m 
 -407.47475m  208.8167m  699.9991m  123.7428m  785.0730m 
 -407.37475m  208.8460m  699.9991m  123.8842m  784.9609m 
 -407.27475m  208.8753m  699.9991m  124.0256m  784.8488m 
 -407.17475m  208.9047m  699.9991m  124.1671m  784.7367m 
 -407.07475m  208.9341m  699.9991m  124.3085m  784.6247m 
 -406.97475m  208.9635m  699.9991m  124.4499m  784.5127m 
 -406.87475m  208.9929m  699.9991m  124.5913m  784.4007m 
 -406.77475m  209.0223m  699.9991m  124.7327m  784.2887m 
 -406.67475m  209.0518m  699.9991m  124.8741m  784.1767m 
 -406.57475m  209.0812m  699.9991m  125.0156m  784.0648m 
 -406.47475m  209.1107m  699.9991m  125.1570m  783.9528m 
 -406.37475m  209.1402m  699.9991m  125.2984m  783.8409m 
 -406.27475m  209.1698m  699.9991m  125.4398m  783.7290m 
 -406.17475m  209.1993m  699.9991m  125.5812m  783.6171m 
 -406.07475m  209.2289m  699.9991m  125.7226m  783.5053m 
 -405.97475m  209.2584m  699.9991m  125.8641m  783.3934m 
 -405.87475m  209.2880m  699.9990m  126.0055m  783.2816m 
 -405.77475m  209.3177m  699.9990m  126.1469m  783.1698m 
 -405.67475m  209.3473m  699.9990m  126.2883m  783.0580m 
 -405.57475m  209.3769m  699.9990m  126.4297m  782.9462m 
 -405.47475m  209.4066m  699.9990m  126.5711m  782.8345m 
 -405.37475m  209.4363m  699.9990m  126.7126m  782.7228m 
 -405.27475m  209.4660m  699.9990m  126.8540m  782.6110m 
 -405.17475m  209.4957m  699.9990m  126.9954m  782.4993m 
 -405.07475m  209.5255m  699.9990m  127.1368m  782.3877m 
 -404.97475m  209.5552m  699.9990m  127.2782m  782.2760m 
 -404.87475m  209.5850m  699.9990m  127.4196m  782.1643m 
 -404.77475m  209.6148m  699.9990m  127.5610m  782.0527m 
 -404.67475m  209.6446m  699.9990m  127.7025m  781.9411m 
 -404.57475m  209.6744m  699.9990m  127.8439m  781.8295m 
 -404.47475m  209.7043m  699.9990m  127.9853m  781.7179m 
 -404.37475m  209.7341m  699.9990m  128.1267m  781.6064m 
 -404.27475m  209.7640m  699.9990m  128.2681m  781.4949m 
 -404.17475m  209.7939m  699.9989m  128.4095m  781.3833m 
 -404.07475m  209.8239m  699.9989m  128.5510m  781.2718m 
 -403.97475m  209.8538m  699.9989m  128.6924m  781.1604m 
 -403.87475m  209.8837m  699.9989m  128.8338m  781.0489m 
 -403.77475m  209.9137m  699.9989m  128.9752m  780.9374m 
 -403.67475m  209.9437m  699.9989m  129.1166m  780.8260m 
 -403.57475m  209.9737m  699.9989m  129.2580m  780.7146m 
 -403.47475m  210.0038m  699.9989m  129.3994m  780.6032m 
 -403.37475m  210.0338m  699.9989m  129.5409m  780.4918m 
 -403.27475m  210.0639m  699.9989m  129.6823m  780.3805m 
 -403.17475m  210.0940m  699.9989m  129.8237m  780.2692m 
 -403.07475m  210.1241m  699.9989m  129.9651m  780.1578m 
 -402.97475m  210.1542m  699.9989m  130.1065m  780.0465m 
 -402.87475m  210.1843m  699.9989m  130.2479m  779.9353m 
 -402.77475m  210.2145m  699.9989m  130.3893m  779.8240m 
 -402.67475m  210.2447m  699.9989m  130.5308m  779.7127m 
 -402.57475m  210.2748m  699.9988m  130.6722m  779.6015m 
 -402.47475m  210.3051m  699.9988m  130.8136m  779.4903m 
 -402.37475m  210.3353m  699.9988m  130.9550m  779.3791m 
 -402.27475m  210.3655m  699.9988m  131.0964m  779.2679m 
 -402.17475m  210.3958m  699.9988m  131.2378m  779.1568m 
 -402.07475m  210.4261m  699.9988m  131.3793m  779.0456m 
 -401.97475m  210.4564m  699.9988m  131.5207m  778.9345m 
 -401.87475m  210.4867m  699.9988m  131.6621m  778.8234m 
 -401.77475m  210.5171m  699.9988m  131.8035m  778.7123m 
 -401.67475m  210.5474m  699.9988m  131.9449m  778.6013m 
 -401.57475m  210.5778m  699.9988m  132.0863m  778.4902m 
 -401.47475m  210.6082m  699.9988m  132.2277m  778.3792m 
 -401.37475m  210.6386m  699.9988m  132.3692m  778.2682m 
 -401.27475m  210.6690m  699.9988m  132.5106m  778.1572m 
 -401.17475m  210.6995m  699.9987m  132.6520m  778.0462m 
 -401.07475m  210.7299m  699.9987m  132.7934m  777.9353m 
 -400.97475m  210.7604m  699.9987m  132.9348m  777.8244m 
 -400.87475m  210.7909m  699.9987m  133.0762m  777.7134m 
 -400.77475m  210.8215m  699.9987m  133.2176m  777.6025m 
 -400.67475m  210.8520m  699.9987m  133.3590m  777.4917m 
 -400.57475m  210.8826m  699.9987m  133.5005m  777.3808m 
 -400.47475m  210.9131m  699.9987m  133.6419m  777.2700m 
 -400.37475m  210.9437m  699.9987m  133.7833m  777.1591m 
 -400.27475m  210.9744m  699.9987m  133.9247m  777.0483m 
 -400.17475m  211.0050m  699.9987m  134.0661m  776.9375m 
 -400.07475m  211.0356m  699.9987m  134.2075m  776.8268m 
 -399.97475m  211.0663m  699.9987m  134.3489m  776.7160m 
 -399.87475m  211.0970m  699.9986m  134.4904m  776.6053m 
 -399.77475m  211.1277m  699.9986m  134.6318m  776.4946m 
 -399.67475m  211.1584m  699.9986m  134.7732m  776.3839m 
 -399.57475m  211.1892m  699.9986m  134.9146m  776.2732m 
 -399.47475m  211.2199m  699.9986m  135.0560m  776.1625m 
 -399.37475m  211.2507m  699.9986m  135.1974m  776.0519m 
 -399.27475m  211.2815m  699.9986m  135.3388m  775.9413m 
 -399.17475m  211.3123m  699.9986m  135.4803m  775.8307m 
 -399.07475m  211.3432m  699.9986m  135.6217m  775.7201m 
 -398.97475m  211.3740m  699.9986m  135.7631m  775.6095m 
 -398.87475m  211.4049m  699.9986m  135.9045m  775.4990m 
 -398.77475m  211.4358m  699.9986m  136.0459m  775.3884m 
 -398.67475m  211.4667m  699.9986m  136.1873m  775.2779m 
 -398.57475m  211.4976m  699.9985m  136.3287m  775.1674m 
 -398.47475m  211.5286m  699.9985m  136.4701m  775.0570m 
 -398.37475m  211.5595m  699.9985m  136.6116m  774.9465m 
 -398.27475m  211.5905m  699.9985m  136.7530m  774.8361m 
 -398.17475m  211.6215m  699.9985m  136.8944m  774.7257m 
 -398.07475m  211.6526m  699.9985m  137.0358m  774.6153m 
 -397.97475m  211.6836m  699.9985m  137.1772m  774.5049m 
 -397.87475m  211.7147m  699.9985m  137.3186m  774.3945m 
 -397.77475m  211.7457m  699.9985m  137.4600m  774.2842m 
 -397.67475m  211.7768m  699.9985m  137.6014m  774.1739m 
 -397.57475m  211.8079m  699.9985m  137.7429m  774.0635m 
 -397.47475m  211.8391m  699.9984m  137.8843m  773.9533m 
 -397.37475m  211.8702m  699.9984m  138.0257m  773.8430m 
 -397.27475m  211.9014m  699.9984m  138.1671m  773.7327m 
 -397.17475m  211.9326m  699.9984m  138.3085m  773.6225m 
 -397.07475m  211.9638m  699.9984m  138.4499m  773.5123m 
 -396.97475m  211.9950m  699.9984m  138.5913m  773.4021m 
 -396.87475m  212.0263m  699.9984m  138.7327m  773.2919m 
 -396.77475m  212.0575m  699.9984m  138.8742m  773.1818m 
 -396.67475m  212.0888m  699.9984m  139.0156m  773.0716m 
 -396.57475m  212.1201m  699.9984m  139.1570m  772.9615m 
 -396.47475m  212.1514m  699.9984m  139.2984m  772.8514m 
 -396.37475m  212.1828m  699.9983m  139.4398m  772.7413m 
 -396.27475m  212.2141m  699.9983m  139.5812m  772.6313m 
 -396.17475m  212.2455m  699.9983m  139.7226m  772.5212m 
 -396.07475m  212.2769m  699.9983m  139.8640m  772.4112m 
 -395.97475m  212.3083m  699.9983m  140.0054m  772.3012m 
 -395.87475m  212.3398m  699.9983m  140.1469m  772.1912m 
 -395.77475m  212.3712m  699.9983m  140.2883m  772.0812m 
 -395.67475m  212.4027m  699.9983m  140.4297m  771.9713m 
 -395.57475m  212.4342m  699.9983m  140.5711m  771.8613m 
 -395.47475m  212.4657m  699.9983m  140.7125m  771.7514m 
 -395.37475m  212.4972m  699.9982m  140.8539m  771.6415m 
 -395.27475m  212.5288m  699.9982m  140.9953m  771.5317m 
 -395.17475m  212.5603m  699.9982m  141.1367m  771.4218m 
 -395.07475m  212.5919m  699.9982m  141.2781m  771.3120m 
 -394.97475m  212.6235m  699.9982m  141.4196m  771.2021m 
 -394.87475m  212.6551m  699.9982m  141.5610m  771.0923m 
 -394.77475m  212.6868m  699.9982m  141.7024m  770.9826m 
 -394.67475m  212.7184m  699.9982m  141.8438m  770.8728m 
 -394.57475m  212.7501m  699.9982m  141.9852m  770.7631m 
 -394.47475m  212.7818m  699.9982m  142.1266m  770.6533m 
 -394.37475m  212.8135m  699.9981m  142.2680m  770.5436m 
 -394.27475m  212.8452m  699.9981m  142.4094m  770.4339m 
 -394.17475m  212.8770m  699.9981m  142.5508m  770.3243m 
 -394.07475m  212.9088m  699.9981m  142.6923m  770.2146m 
 -393.97475m  212.9406m  699.9981m  142.8337m  770.1050m 
 -393.87475m  212.9724m  699.9981m  142.9751m  769.9954m 
 -393.77475m  213.0042m  699.9981m  143.1165m  769.8858m 
 -393.67475m  213.0360m  699.9981m  143.2579m  769.7762m 
 -393.57475m  213.0679m  699.9981m  143.3993m  769.6667m 
 -393.47475m  213.0998m  699.9980m  143.5407m  769.5571m 
 -393.37475m  213.1317m  699.9980m  143.6821m  769.4476m 
 -393.27475m  213.1636m  699.9980m  143.8235m  769.3381m 
 -393.17475m  213.1956m  699.9980m  143.9649m  769.2286m 
 -393.07475m  213.2275m  699.9980m  144.1064m  769.1192m 
 -392.97475m  213.2595m  699.9980m  144.2478m  769.0097m 
 -392.87475m  213.2915m  699.9980m  144.3892m  768.9003m 
 -392.77475m  213.3235m  699.9980m  144.5306m  768.7909m 
 -392.67475m  213.3556m  699.9979m  144.6720m  768.6815m 
 -392.57475m  213.3876m  699.9979m  144.8134m  768.5722m 
 -392.47475m  213.4197m  699.9979m  144.9548m  768.4628m 
 -392.37475m  213.4518m  699.9979m  145.0962m  768.3535m 
 -392.27475m  213.4839m  699.9979m  145.2376m  768.2442m 
 -392.17475m  213.5160m  699.9979m  145.3790m  768.1349m 
 -392.07475m  213.5482m  699.9979m  145.5205m  768.0256m 
 -391.97475m  213.5804m  699.9979m  145.6619m  767.9164m 
 -391.87475m  213.6125m  699.9978m  145.8033m  767.8071m 
 -391.77475m  213.6448m  699.9978m  145.9447m  767.6979m 
 -391.67475m  213.6770m  699.9978m  146.0861m  767.5887m 
 -391.57475m  213.7092m  699.9978m  146.2275m  767.4795m 
 -391.47475m  213.7415m  699.9978m  146.3689m  767.3704m 
 -391.37475m  213.7738m  699.9978m  146.5103m  767.2613m 
 -391.27475m  213.8061m  699.9978m  146.6517m  767.1521m 
 -391.17475m  213.8384m  699.9978m  146.7931m  767.0430m 
 -391.07475m  213.8707m  699.9977m  146.9345m  766.9340m 
 -390.97475m  213.9031m  699.9977m  147.0759m  766.8249m 
 -390.87475m  213.9355m  699.9977m  147.2174m  766.7159m 
 -390.77475m  213.9679m  699.9977m  147.3588m  766.6068m 
 -390.67475m  214.0003m  699.9977m  147.5002m  766.4978m 
 -390.57475m  214.0327m  699.9977m  147.6416m  766.3888m 
 -390.47475m  214.0652m  699.9977m  147.7830m  766.2799m 
 -390.37475m  214.0977m  699.9977m  147.9244m  766.1709m 
 -390.27475m  214.1302m  699.9976m  148.0658m  766.0620m 
 -390.17475m  214.1627m  699.9976m  148.2072m  765.9531m 
 -390.07475m  214.1952m  699.9976m  148.3486m  765.8442m 
 -389.97475m  214.2278m  699.9976m  148.4900m  765.7353m 
 -389.87475m  214.2603m  699.9976m  148.6314m  765.6265m 
 -389.77475m  214.2929m  699.9976m  148.7728m  765.5177m 
 -389.67475m  214.3255m  699.9976m  148.9142m  765.4089m 
 -389.57475m  214.3582m  699.9975m  149.0557m  765.3001m 
 -389.47475m  214.3908m  699.9975m  149.1971m  765.1913m 
 -389.37475m  214.4235m  699.9975m  149.3385m  765.0825m 
 -389.27475m  214.4562m  699.9975m  149.4799m  764.9738m 
 -389.17475m  214.4889m  699.9975m  149.6213m  764.8651m 
 -389.07475m  214.5216m  699.9975m  149.7627m  764.7564m 
 -388.97475m  214.5544m  699.9975m  149.9041m  764.6477m 
 -388.87475m  214.5871m  699.9974m  150.0455m  764.5391m 
 -388.77475m  214.6199m  699.9974m  150.1869m  764.4304m 
 -388.67475m  214.6527m  699.9974m  150.3283m  764.3218m 
 -388.57475m  214.6855m  699.9974m  150.4697m  764.2132m 
 -388.47475m  214.7184m  699.9974m  150.6111m  764.1046m 
 -388.37475m  214.7512m  699.9974m  150.7525m  763.9961m 
 -388.27475m  214.7841m  699.9973m  150.8939m  763.8875m 
 -388.17475m  214.8170m  699.9973m  151.0353m  763.7790m 
 -388.07475m  214.8499m  699.9973m  151.1767m  763.6705m 
 -387.97475m  214.8829m  699.9973m  151.3182m  763.5620m 
 -387.87475m  214.9158m  699.9973m  151.4596m  763.4535m 
 -387.77475m  214.9488m  699.9973m  151.6010m  763.3451m 
 -387.67475m  214.9818m  699.9973m  151.7424m  763.2367m 
 -387.57475m  215.0148m  699.9972m  151.8838m  763.1283m 
 -387.47475m  215.0478m  699.9972m  152.0252m  763.0199m 
 -387.37475m  215.0809m  699.9972m  152.1666m  762.9115m 
 -387.27475m  215.1140m  699.9972m  152.3080m  762.8032m 
 -387.17475m  215.1471m  699.9972m  152.4494m  762.6948m 
 -387.07475m  215.1802m  699.9972m  152.5908m  762.5865m 
 -386.97475m  215.2133m  699.9971m  152.7322m  762.4782m 
 -386.87475m  215.2465m  699.9971m  152.8736m  762.3700m 
 -386.77475m  215.2796m  699.9971m  153.0150m  762.2617m 
 -386.67475m  215.3128m  699.9971m  153.1564m  762.1535m 
 -386.57475m  215.3460m  699.9971m  153.2978m  762.0453m 
 -386.47475m  215.3793m  699.9971m  153.4392m  761.9371m 
 -386.37475m  215.4125m  699.9970m  153.5806m  761.8289m 
 -386.27475m  215.4458m  699.9970m  153.7220m  761.7208m 
 -386.17475m  215.4791m  699.9970m  153.8634m  761.6126m 
 -386.07475m  215.5124m  699.9970m  154.0048m  761.5045m 
 -385.97475m  215.5457m  699.9970m  154.1462m  761.3964m 
 -385.87475m  215.5790m  699.9969m  154.2876m  761.2883m 
 -385.77475m  215.6124m  699.9969m  154.4291m  761.1803m 
 -385.67475m  215.6458m  699.9969m  154.5705m  761.0722m 
 -385.57475m  215.6792m  699.9969m  154.7119m  760.9642m 
 -385.47475m  215.7126m  699.9969m  154.8533m  760.8562m 
 -385.37475m  215.7461m  699.9969m  154.9947m  760.7483m 
 -385.27475m  215.7795m  699.9968m  155.1361m  760.6403m 
 -385.17475m  215.8130m  699.9968m  155.2775m  760.5324m 
 -385.07475m  215.8465m  699.9968m  155.4189m  760.4244m 
 -384.97475m  215.8800m  699.9968m  155.5603m  760.3165m 
 -384.87475m  215.9136m  699.9968m  155.7017m  760.2087m 
 -384.77475m  215.9471m  699.9967m  155.8431m  760.1008m 
 -384.67475m  215.9807m  699.9967m  155.9845m  759.9930m 
 -384.57475m  216.0143m  699.9967m  156.1259m  759.8851m 
 -384.47475m  216.0479m  699.9967m  156.2673m  759.7773m 
 -384.37475m  216.0816m  699.9967m  156.4087m  759.6695m 
 -384.27475m  216.1152m  699.9966m  156.5501m  759.5618m 
 -384.17475m  216.1489m  699.9966m  156.6915m  759.4540m 
 -384.07475m  216.1826m  699.9966m  156.8329m  759.3463m 
 -383.97475m  216.2163m  699.9966m  156.9743m  759.2386m 
 -383.87475m  216.2501m  699.9966m  157.1157m  759.1309m 
 -383.77475m  216.2838m  699.9965m  157.2571m  759.0233m 
 -383.67475m  216.3176m  699.9965m  157.3985m  758.9156m 
 -383.57475m  216.3514m  699.9965m  157.5399m  758.8080m 
 -383.47475m  216.3852m  699.9965m  157.6813m  758.7004m 
 -383.37475m  216.4190m  699.9965m  157.8227m  758.5928m 
 -383.27475m  216.4529m  699.9964m  157.9641m  758.4852m 
 -383.17475m  216.4868m  699.9964m  158.1055m  758.3777m 
 -383.07475m  216.5207m  699.9964m  158.2469m  758.2702m 
 -382.97475m  216.5546m  699.9964m  158.3883m  758.1626m 
 -382.87475m  216.5885m  699.9964m  158.5297m  758.0552m 
 -382.77475m  216.6225m  699.9963m  158.6711m  757.9477m 
 -382.67475m  216.6564m  699.9963m  158.8125m  757.8402m 
 -382.57475m  216.6904m  699.9963m  158.9539m  757.7328m 
 -382.47475m  216.7244m  699.9963m  159.0953m  757.6254m 
 -382.37475m  216.7585m  699.9963m  159.2367m  757.5180m 
 -382.27475m  216.7925m  699.9962m  159.3781m  757.4106m 
 -382.17475m  216.8266m  699.9962m  159.5195m  757.3033m 
 -382.07475m  216.8607m  699.9962m  159.6609m  757.1960m 
 -381.97475m  216.8948m  699.9962m  159.8023m  757.0887m 
 -381.87475m  216.9289m  699.9961m  159.9437m  756.9814m 
 -381.77475m  216.9631m  699.9961m  160.0851m  756.8741m 
 -381.67475m  216.9972m  699.9961m  160.2265m  756.7668m 
 -381.57475m  217.0314m  699.9961m  160.3679m  756.6596m 
 -381.47475m  217.0656m  699.9961m  160.5093m  756.5524m 
 -381.37475m  217.0999m  699.9960m  160.6507m  756.4452m 
 -381.27475m  217.1341m  699.9960m  160.7921m  756.3380m 
 -381.17475m  217.1684m  699.9960m  160.9335m  756.2309m 
 -381.07475m  217.2027m  699.9960m  161.0749m  756.1237m 
 -380.97475m  217.2370m  699.9959m  161.2163m  756.0166m 
 -380.87475m  217.2713m  699.9959m  161.3577m  755.9095m 
 -380.77475m  217.3057m  699.9959m  161.4991m  755.8025m 
 -380.67475m  217.3400m  699.9959m  161.6405m  755.6954m 
 -380.57475m  217.3744m  699.9958m  161.7819m  755.5884m 
 -380.47475m  217.4088m  699.9958m  161.9233m  755.4814m 
 -380.37475m  217.4432m  699.9958m  162.0647m  755.3744m 
 -380.27475m  217.4777m  699.9958m  162.2061m  755.2674m 
 -380.17475m  217.5122m  699.9957m  162.3475m  755.1604m 
 -380.07475m  217.5466m  699.9957m  162.4889m  755.0535m 
 -379.97475m  217.5812m  699.9957m  162.6302m  754.9466m 
 -379.87475m  217.6157m  699.9957m  162.7716m  754.8397m 
 -379.77475m  217.6502m  699.9956m  162.9130m  754.7328m 
 -379.67475m  217.6848m  699.9956m  163.0544m  754.6260m 
 -379.57475m  217.7194m  699.9956m  163.1958m  754.5191m 
 -379.47475m  217.7540m  699.9956m  163.3372m  754.4123m 
 -379.37475m  217.7886m  699.9955m  163.4786m  754.3055m 
 -379.27475m  217.8233m  699.9955m  163.6200m  754.1988m 
 -379.17475m  217.8579m  699.9955m  163.7614m  754.0920m 
 -379.07475m  217.8926m  699.9955m  163.9028m  753.9853m 
 -378.97475m  217.9273m  699.9954m  164.0442m  753.8785m 
 -378.87475m  217.9620m  699.9954m  164.1856m  753.7719m 
 -378.77475m  217.9968m  699.9954m  164.3270m  753.6652m 
 -378.67475m  218.0316m  699.9953m  164.4684m  753.5585m 
 -378.57475m  218.0663m  699.9953m  164.6098m  753.4519m 
 -378.47475m  218.1012m  699.9953m  164.7512m  753.3453m 
 -378.37475m  218.1360m  699.9953m  164.8926m  753.2387m 
 -378.27475m  218.1708m  699.9952m  165.0340m  753.1321m 
 -378.17475m  218.2057m  699.9952m  165.1753m  753.0255m 
 -378.07475m  218.2406m  699.9952m  165.3167m  752.9190m 
 -377.97475m  218.2755m  699.9951m  165.4581m  752.8125m 
 -377.87475m  218.3104m  699.9951m  165.5995m  752.7060m 
 -377.77475m  218.3454m  699.9951m  165.7409m  752.5995m 
 -377.67475m  218.3803m  699.9951m  165.8823m  752.4931m 
 -377.57475m  218.4153m  699.9950m  166.0237m  752.3866m 
 -377.47475m  218.4503m  699.9950m  166.1651m  752.2802m 
 -377.37475m  218.4853m  699.9950m  166.3065m  752.1738m 
 -377.27475m  218.5204m  699.9949m  166.4479m  752.0674m 
 -377.17475m  218.5555m  699.9949m  166.5893m  751.9611m 
 -377.07475m  218.5905m  699.9949m  166.7307m  751.8548m 
 -376.97475m  218.6256m  699.9949m  166.8721m  751.7484m 
 -376.87475m  218.6608m  699.9948m  167.0134m  751.6421m 
 -376.77475m  218.6959m  699.9948m  167.1548m  751.5359m 
 -376.67475m  218.7311m  699.9948m  167.2962m  751.4296m 
 -376.57475m  218.7663m  699.9947m  167.4376m  751.3234m 
 -376.47475m  218.8015m  699.9947m  167.5790m  751.2172m 
 -376.37475m  218.8367m  699.9947m  167.7204m  751.1110m 
 -376.27475m  218.8720m  699.9946m  167.8618m  751.0048m 
 -376.17475m  218.9072m  699.9946m  168.0032m  750.8986m 
 -376.07475m  218.9425m  699.9946m  168.1446m  750.7925m 
 -375.97475m  218.9778m  699.9945m  168.2860m  750.6864m 
 -375.87475m  219.0131m  699.9945m  168.4273m  750.5803m 
 -375.77475m  219.0485m  699.9945m  168.5687m  750.4742m 
 -375.67475m  219.0839m  699.9944m  168.7101m  750.3682m 
 -375.57475m  219.1192m  699.9944m  168.8515m  750.2621m 
 -375.47475m  219.1547m  699.9944m  168.9929m  750.1561m 
 -375.37475m  219.1901m  699.9943m  169.1343m  750.0501m 
 -375.27475m  219.2255m  699.9943m  169.2757m  749.9442m 
 -375.17475m  219.2610m  699.9943m  169.4171m  749.8382m 
 -375.07475m  219.2965m  699.9942m  169.5585m  749.7323m 
 -374.97475m  219.3320m  699.9942m  169.6998m  749.6264m 
 -374.87475m  219.3675m  699.9942m  169.8412m  749.5205m 
 -374.77475m  219.4031m  699.9941m  169.9826m  749.4146m 
 -374.67475m  219.4386m  699.9941m  170.1240m  749.3088m 
 -374.57475m  219.4742m  699.9941m  170.2654m  749.2029m 
 -374.47475m  219.5098m  699.9940m  170.4068m  749.0971m 
 -374.37475m  219.5455m  699.9940m  170.5482m  748.9913m 
 -374.27475m  219.5811m  699.9940m  170.6895m  748.8856m 
 -374.17475m  219.6168m  699.9939m  170.8309m  748.7798m 
 -374.07475m  219.6525m  699.9939m  170.9723m  748.6741m 
 -373.97475m  219.6882m  699.9939m  171.1137m  748.5684m 
 -373.87475m  219.7239m  699.9938m  171.2551m  748.4627m 
 -373.77475m  219.7597m  699.9938m  171.3965m  748.3570m 
 -373.67475m  219.7955m  699.9937m  171.5379m  748.2514m 
 -373.57475m  219.8313m  699.9937m  171.6792m  748.1457m 
 -373.47475m  219.8671m  699.9937m  171.8206m  748.0401m 
 -373.37475m  219.9029m  699.9936m  171.9620m  747.9345m 
 -373.27475m  219.9388m  699.9936m  172.1034m  747.8290m 
 -373.17475m  219.9746m  699.9936m  172.2448m  747.7234m 
 -373.07475m  220.0105m  699.9935m  172.3862m  747.6179m 
 -372.97475m  220.0464m  699.9935m  172.5275m  747.5124m 
 -372.87475m  220.0824m  699.9934m  172.6689m  747.4069m 
 -372.77475m  220.1183m  699.9934m  172.8103m  747.3014m 
 -372.67475m  220.1543m  699.9934m  172.9517m  747.1960m 
 -372.57475m  220.1903m  699.9933m  173.0931m  747.0906m 
 -372.47475m  220.2263m  699.9933m  173.2345m  746.9851m 
 -372.37475m  220.2623m  699.9933m  173.3758m  746.8798m 
 -372.27475m  220.2984m  699.9932m  173.5172m  746.7744m 
 -372.17475m  220.3345m  699.9932m  173.6586m  746.6691m 
 -372.07475m  220.3706m  699.9931m  173.8000m  746.5637m 
 -371.97475m  220.4067m  699.9931m  173.9414m  746.4584m 
 -371.87475m  220.4428m  699.9930m  174.0827m  746.3531m 
 -371.77475m  220.4790m  699.9930m  174.2241m  746.2479m 
 -371.67475m  220.5152m  699.9930m  174.3655m  746.1426m 
 -371.57475m  220.5514m  699.9929m  174.5069m  746.0374m 
 -371.47475m  220.5876m  699.9929m  174.6483m  745.9322m 
 -371.37475m  220.6238m  699.9928m  174.7896m  745.8270m 
 -371.27475m  220.6601m  699.9928m  174.9310m  745.7219m 
 -371.17475m  220.6964m  699.9928m  175.0724m  745.6167m 
 -371.07475m  220.7327m  699.9927m  175.2138m  745.5116m 
 -370.97475m  220.7690m  699.9927m  175.3552m  745.4065m 
 -370.87475m  220.8053m  699.9926m  175.4965m  745.3014m 
 -370.77475m  220.8417m  699.9926m  175.6379m  745.1964m 
 -370.67475m  220.8781m  699.9925m  175.7793m  745.0913m 
 -370.57475m  220.9145m  699.9925m  175.9207m  744.9863m 
 -370.47475m  220.9509m  699.9924m  176.0620m  744.8813m 
 -370.37475m  220.9874m  699.9924m  176.2034m  744.7763m 
 -370.27475m  221.0238m  699.9924m  176.3448m  744.6714m 
 -370.17475m  221.0603m  699.9923m  176.4862m  744.5665m 
 -370.07475m  221.0968m  699.9923m  176.6275m  744.4615m 
 -369.97475m  221.1333m  699.9922m  176.7689m  744.3566m 
 -369.87475m  221.1699m  699.9922m  176.9103m  744.2518m 
 -369.77475m  221.2065m  699.9921m  177.0517m  744.1469m 
 -369.67475m  221.2430m  699.9921m  177.1930m  744.0421m 
 -369.57475m  221.2796m  699.9920m  177.3344m  743.9373m 
 -369.47475m  221.3163m  699.9920m  177.4758m  743.8325m 
 -369.37475m  221.3529m  699.9919m  177.6172m  743.7277m 
 -369.27475m  221.3896m  699.9919m  177.7585m  743.6230m 
 -369.17475m  221.4263m  699.9918m  177.8999m  743.5182m 
 -369.07475m  221.4630m  699.9918m  178.0413m  743.4135m 
 -368.97475m  221.4997m  699.9917m  178.1827m  743.3088m 
 -368.87475m  221.5365m  699.9917m  178.3240m  743.2042m 
 -368.77475m  221.5733m  699.9916m  178.4654m  743.0995m 
 -368.67475m  221.6100m  699.9916m  178.6068m  742.9949m 
 -368.57475m  221.6469m  699.9915m  178.7481m  742.8903m 
 -368.47475m  221.6837m  699.9915m  178.8895m  742.7857m 
 -368.37475m  221.7206m  699.9914m  179.0309m  742.6811m 
 -368.27475m  221.7574m  699.9914m  179.1723m  742.5766m 
 -368.17475m  221.7943m  699.9913m  179.3136m  742.4720m 
 -368.07475m  221.8312m  699.9913m  179.4550m  742.3675m 
 -367.97475m  221.8682m  699.9912m  179.5964m  742.2631m 
 -367.87475m  221.9051m  699.9912m  179.7377m  742.1586m 
 -367.77475m  221.9421m  699.9911m  179.8791m  742.0541m 
 -367.67475m  221.9791m  699.9911m  180.0205m  741.9497m 
 -367.57475m  222.0161m  699.9910m  180.1618m  741.8453m 
 -367.47475m  222.0532m  699.9910m  180.3032m  741.7409m 
 -367.37475m  222.0902m  699.9909m  180.4446m  741.6366m 
 -367.27475m  222.1273m  699.9909m  180.5859m  741.5322m 
 -367.17475m  222.1644m  699.9908m  180.7273m  741.4279m 
 -367.07475m  222.2015m  699.9908m  180.8687m  741.3236m 
 -366.97475m  222.2387m  699.9907m  181.0100m  741.2193m 
 -366.87475m  222.2758m  699.9907m  181.1514m  741.1151m 
 -366.77475m  222.3130m  699.9906m  181.2928m  741.0109m 
 -366.67475m  222.3502m  699.9905m  181.4341m  740.9066m 
 -366.57475m  222.3875m  699.9905m  181.5755m  740.8024m 
 -366.47475m  222.4247m  699.9904m  181.7169m  740.6983m 
 -366.37475m  222.4620m  699.9904m  181.8582m  740.5941m 
 -366.27475m  222.4993m  699.9903m  181.9996m  740.4900m 
 -366.17475m  222.5366m  699.9903m  182.1410m  740.3859m 
 -366.07475m  222.5739m  699.9902m  182.2823m  740.2818m 
 -365.97475m  222.6113m  699.9901m  182.4237m  740.1777m 
 -365.87475m  222.6486m  699.9901m  182.5651m  740.0737m 
 -365.77475m  222.6860m  699.9900m  182.7064m  739.9696m 
 -365.67475m  222.7234m  699.9900m  182.8478m  739.8656m 
 -365.57475m  222.7609m  699.9899m  182.9891m  739.7616m 
 -365.47475m  222.7983m  699.9898m  183.1305m  739.6577m 
 -365.37475m  222.8358m  699.9898m  183.2719m  739.5537m 
 -365.27475m  222.8733m  699.9897m  183.4132m  739.4498m 
 -365.17475m  222.9108m  699.9897m  183.5546m  739.3459m 
 -365.07475m  222.9483m  699.9896m  183.6959m  739.2420m 
 -364.97475m  222.9859m  699.9895m  183.8373m  739.1381m 
 -364.87475m  223.0235m  699.9895m  183.9787m  739.0343m 
 -364.77475m  223.0611m  699.9894m  184.1200m  738.9305m 
 -364.67475m  223.0987m  699.9893m  184.2614m  738.8267m 
 -364.57475m  223.1363m  699.9893m  184.4027m  738.7229m 
 -364.47475m  223.1740m  699.9892m  184.5441m  738.6191m 
 -364.37475m  223.2117m  699.9892m  184.6854m  738.5154m 
 -364.27475m  223.2494m  699.9891m  184.8268m  738.4117m 
 -364.17475m  223.2871m  699.9890m  184.9682m  738.3080m 
 -364.07475m  223.3249m  699.9890m  185.1095m  738.2043m 
 -363.97475m  223.3626m  699.9889m  185.2509m  738.1006m 
 -363.87475m  223.4004m  699.9888m  185.3922m  737.9970m 
 -363.77475m  223.4382m  699.9888m  185.5336m  737.8934m 
 -363.67475m  223.4760m  699.9887m  185.6749m  737.7898m 
 -363.57475m  223.5139m  699.9886m  185.8163m  737.6862m 
 -363.47475m  223.5518m  699.9886m  185.9576m  737.5827m 
 -363.37475m  223.5896m  699.9885m  186.0990m  737.4791m 
 -363.27475m  223.6276m  699.9884m  186.2403m  737.3756m 
 -363.17475m  223.6655m  699.9884m  186.3817m  737.2721m 
 -363.07475m  223.7034m  699.9883m  186.5231m  737.1687m 
 -362.97475m  223.7414m  699.9882m  186.6644m  737.0652m 
 -362.87475m  223.7794m  699.9881m  186.8058m  736.9618m 
 -362.77475m  223.8174m  699.9881m  186.9471m  736.8584m 
 -362.67475m  223.8555m  699.9880m  187.0885m  736.7550m 
 -362.57475m  223.8935m  699.9879m  187.2298m  736.6516m 
 -362.47475m  223.9316m  699.9879m  187.3712m  736.5483m 
 -362.37475m  223.9697m  699.9878m  187.5125m  736.4450m 
 -362.27475m  224.0078m  699.9877m  187.6539m  736.3417m 
 -362.17475m  224.0460m  699.9876m  187.7952m  736.2384m 
 -362.07475m  224.0841m  699.9876m  187.9365m  736.1351m 
 -361.97475m  224.1223m  699.9875m  188.0779m  736.0319m 
 -361.87475m  224.1605m  699.9874m  188.2192m  735.9287m 
 -361.77475m  224.1987m  699.9873m  188.3606m  735.8255m 
 -361.67475m  224.2370m  699.9873m  188.5019m  735.7223m 
 -361.57475m  224.2752m  699.9872m  188.6433m  735.6191m 
 -361.47475m  224.3135m  699.9871m  188.7846m  735.5160m 
 -361.37475m  224.3518m  699.9870m  188.9260m  735.4129m 
 -361.27475m  224.3902m  699.9870m  189.0673m  735.3098m 
 -361.17475m  224.4285m  699.9869m  189.2087m  735.2067m 
 -361.07475m  224.4669m  699.9868m  189.3500m  735.1037m 
 -360.97475m  224.5053m  699.9867m  189.4913m  735.0007m 
 -360.87475m  224.5437m  699.9866m  189.6327m  734.8976m 
 -360.77475m  224.5821m  699.9866m  189.7740m  734.7947m 
 -360.67475m  224.6206m  699.9865m  189.9154m  734.6917m 
 -360.57475m  224.6590m  699.9864m  190.0567m  734.5887m 
 -360.47475m  224.6975m  699.9863m  190.1980m  734.4858m 
 -360.37475m  224.7361m  699.9862m  190.3394m  734.3829m 
 -360.27475m  224.7746m  699.9862m  190.4807m  734.2800m 
 -360.17475m  224.8132m  699.9861m  190.6221m  734.1772m 
[...]
  468.62525m  700.0000m   33.1027m  695.8389m   37.2638m 
  468.72525m  700.0000m   33.0973m  695.9749m   37.1224m 
  468.82525m  700.0000m   33.0919m  696.1109m   36.9809m 
  468.92525m  700.0000m   33.0864m  696.2469m   36.8395m 
  469.02525m  700.0000m   33.0810m  696.3829m   36.6981m 
  469.12525m  700.0000m   33.0756m  696.5189m   36.5567m 
  469.22525m  700.0000m   33.0702m  696.6550m   36.4153m 
  469.32525m  700.0000m   33.0649m  696.7910m   36.2738m 
  469.42525m  700.0000m   33.0595m  696.9270m   36.1324m 
  469.52525m  700.0000m   33.0541m  697.0631m   35.9910m 
  469.62525m  700.0000m   33.0487m  697.1991m   35.8496m 
  469.72525m  700.0000m   33.0433m  697.3352m   35.7081m 
  469.82525m  700.0000m   33.0380m  697.4712m   35.5667m 
  469.92525m  700.0000m   33.0326m  697.6073m   35.4253m 
  470.02525m  700.0000m   33.0273m  697.7433m   35.2839m 
  470.12525m  700.0000m   33.0219m  697.8794m   35.1425m 
  470.22525m  700.0000m   33.0166m  698.0155m   35.0010m 
  470.32525m  700.0000m   33.0112m  698.1516m   34.8596m 
  470.42525m  700.0000m   33.0059m  698.2876m   34.7182m 
  470.52525m  700.0000m   33.0005m  698.4237m   34.5768m 
  470.62525m  700.0000m   32.9952m  698.5598m   34.4354m 
  470.72525m  700.0000m   32.9899m  698.6959m   34.2939m 
  470.82525m  700.0000m   32.9846m  698.8320m   34.1525m 
  470.92525m  700.0000m   32.9792m  698.9681m   34.0111m 
  471.02525m  700.0000m   32.9739m  699.1042m   33.8697m 
  471.12525m  700.0000m   32.9686m  699.2404m   33.7283m 
  471.22525m  700.0000m   32.9633m  699.3765m   33.5868m 
  471.32525m  700.0000m   32.9580m  699.5126m   33.4454m 
  471.42525m  700.0000m   32.9527m  699.6487m   33.3040m 
  471.52525m  700.0000m   32.9474m  699.7849m   33.1626m 
  471.62525m  700.0000m   32.9422m  699.9210m   33.0211m 
  471.72525m  700.0000m   32.9369m  700.0571m   32.8797m 
  471.82525m  700.0000m   32.9316m  700.1933m   32.7383m 
  471.92525m  700.0000m   32.9263m  700.3294m   32.5969m 
  472.02525m  700.0000m   32.9211m  700.4656m   32.4555m 
  472.12525m  700.0000m   32.9158m  700.6018m   32.3140m 
  472.22525m  700.0000m   32.9106m  700.7379m   32.1726m 
  472.32525m  700.0000m   32.9053m  700.8741m   32.0312m 
  472.42525m  700.0000m   32.9001m  701.0103m   31.8898m 
  472.52525m  700.0000m   32.8948m  701.1464m   31.7484m 
  472.62525m  700.0000m   32.8896m  701.2826m   31.6069m 
  472.72525m  700.0000m   32.8844m  701.4188m   31.4655m 
  472.82525m  700.0000m   32.8791m  701.5550m   31.3241m 
  472.92525m  700.0000m   32.8739m  701.6912m   31.1827m 
  473.02525m  700.0000m   32.8687m  701.8274m   31.0412m 
  473.12525m  700.0000m   32.8635m  701.9636m   30.8998m 
  473.22525m  700.0000m   32.8583m  702.0998m   30.7584m 
  473.32525m  700.0000m   32.8530m  702.2360m   30.6170m 
  473.42525m  700.0000m   32.8478m  702.3723m   30.4756m 
  473.52525m  700.0000m   32.8427m  702.5085m   30.3341m 
  473.62525m  700.0000m   32.8375m  702.6447m   30.1927m 
  473.72525m  700.0000m   32.8323m  702.7809m   30.0513m 
  473.82525m  700.0000m   32.8271m  702.9172m   29.9099m 
  473.92525m  700.0000m   32.8219m  703.0534m   29.7685m 
  474.02525m  700.0000m   32.8167m  703.1897m   29.6270m 
  474.12525m  700.0000m   32.8116m  703.3259m   29.4856m 
  474.22525m  700.0000m   32.8064m  703.4622m   29.3442m 
  474.32525m  700.0000m   32.8012m  703.5984m   29.2028m 
  474.42525m  700.0000m   32.7961m  703.7347m   29.0614m 
  474.52525m  700.0000m   32.7909m  703.8710m   28.9199m 
  474.62525m  700.0000m   32.7858m  704.0073m   28.7785m 
  474.72525m  700.0000m   32.7806m  704.1435m   28.6371m 
  474.82525m  700.0000m   32.7755m  704.2798m   28.4957m 
  474.92525m  700.0000m   32.7704m  704.4161m   28.3542m 
  475.02525m  700.0000m   32.7652m  704.5524m   28.2128m 
  475.12525m  700.0000m   32.7601m  704.6887m   28.0714m 
  475.22525m  700.0000m   32.7550m  704.8250m   27.9300m 
  475.32525m  700.0000m   32.7499m  704.9613m   27.7886m 
  475.42525m  700.0000m   32.7448m  705.0976m   27.6471m 
  475.52525m  700.0000m   32.7397m  705.2339m   27.5057m 
  475.62525m  700.0000m   32.7346m  705.3702m   27.3643m 
  475.72525m  700.0000m   32.7295m  705.5066m   27.2229m 
  475.82525m  700.0000m   32.7244m  705.6429m   27.0815m 
  475.92525m  700.0000m   32.7193m  705.7792m   26.9400m 
  476.02525m  700.0000m   32.7142m  705.9156m   26.7986m 
  476.12525m  700.0000m   32.7091m  706.0519m   26.6572m 
  476.22525m  700.0000m   32.7040m  706.1882m   26.5158m 
  476.32525m  700.0000m   32.6990m  706.3246m   26.3743m 
  476.42525m  700.0000m   32.6939m  706.4609m   26.2329m 
  476.52525m  700.0000m   32.6888m  706.5973m   26.0915m 
  476.62525m  700.0000m   32.6838m  706.7337m   25.9501m 
  476.72525m  700.0000m   32.6787m  706.8700m   25.8087m 
  476.82525m  700.0000m   32.6737m  707.0064m   25.6672m 
  476.92525m  700.0000m   32.6686m  707.1428m   25.5258m 
  477.02525m  700.0000m   32.6636m  707.2792m   25.3844m 
  477.12525m  700.0000m   32.6585m  707.4155m   25.2430m 
  477.22525m  700.0000m   32.6535m  707.5519m   25.1016m 
  477.32525m  700.0000m   32.6485m  707.6883m   24.9601m 
  477.42525m  700.0000m   32.6434m  707.8247m   24.8187m 
  477.52525m  700.0000m   32.6384m  707.9611m   24.6773m 
  477.62525m  700.0000m   32.6334m  708.0975m   24.5359m 
  477.72525m  700.0000m   32.6284m  708.2339m   24.3945m 
  477.82525m  700.0000m   32.6234m  708.3703m   24.2530m 
  477.92525m  700.0000m   32.6184m  708.5068m   24.1116m 
  478.02525m  700.0000m   32.6134m  708.6432m   23.9702m 
  478.12525m  700.0000m   32.6084m  708.7796m   23.8288m 
  478.22525m  700.0000m   32.6034m  708.9160m   23.6873m 
  478.32525m  700.0000m   32.5984m  709.0525m   23.5459m 
  478.42525m  700.0000m   32.5934m  709.1889m   23.4045m 
  478.52525m  700.0000m   32.5885m  709.3254m   23.2631m 
  478.62525m  700.0000m   32.5835m  709.4618m   23.1217m 
  478.72525m  700.0000m   32.5785m  709.5983m   22.9802m 
  478.82525m  700.0000m   32.5736m  709.7347m   22.8388m 
  478.92525m  700.0000m   32.5686m  709.8712m   22.6974m 
  479.02525m  700.0000m   32.5636m  710.0076m   22.5560m 
  479.12525m  700.0000m   32.5587m  710.1441m   22.4146m 
  479.22525m  700.0000m   32.5537m  710.2806m   22.2731m 
  479.32525m  700.0000m   32.5488m  710.4171m   22.1317m 
  479.42525m  700.0000m   32.5439m  710.5536m   21.9903m 
  479.52525m  700.0000m   32.5389m  710.6900m   21.8489m 
  479.62525m  700.0000m   32.5340m  710.8265m   21.7074m 
  479.72525m  700.0000m   32.5291m  710.9630m   21.5660m 
  479.82525m  700.0000m   32.5241m  711.0995m   21.4246m 
  479.92525m  700.0000m   32.5192m  711.2360m   21.2832m 
  480.02525m  700.0000m   32.5143m  711.3725m   21.1418m 
  480.12525m  700.0000m   32.5094m  711.5090m   21.0003m 
  480.22525m  700.0000m   32.5045m  711.6456m   20.8589m 
  480.32525m  700.0000m   32.4996m  711.7821m   20.7175m 
  480.42525m  700.0000m   32.4947m  711.9186m   20.5761m 
  480.52525m  700.0000m   32.4898m  712.0551m   20.4347m 
  480.62525m  700.0000m   32.4849m  712.1917m   20.2932m 
  480.72525m  700.0000m   32.4800m  712.3282m   20.1518m 
  480.82525m  700.0000m   32.4752m  712.4647m   20.0104m 
  480.92525m  700.0000m   32.4703m  712.6013m   19.8690m 
  481.02525m  700.0000m   32.4654m  712.7378m   19.7275m 
  481.12525m  700.0000m   32.4605m  712.8744m   19.5861m 
  481.22525m  700.0000m   32.4557m  713.0109m   19.4447m 
  481.32525m  700.0000m   32.4508m  713.1475m   19.3033m 
  481.42525m  700.0000m   32.4460m  713.2841m   19.1619m 
  481.52525m  700.0000m   32.4411m  713.4206m   19.0204m 
  481.62525m  700.0000m   32.4363m  713.5572m   18.8790m 
  481.72525m  700.0000m   32.4314m  713.6938m   18.7376m 
  481.82525m  700.0000m   32.4266m  713.8304m   18.5962m 
  481.92525m  700.0000m   32.4217m  713.9670m   18.4548m 
  482.02525m  700.0000m   32.4169m  714.1036m   18.3133m 
  482.12525m  700.0000m   32.4121m  714.2402m   18.1719m 
  482.22525m  700.0000m   32.4073m  714.3767m   18.0305m 
  482.32525m  700.0000m   32.4024m  714.5134m   17.8891m 
  482.42525m  700.0000m   32.3976m  714.6500m   17.7477m 
  482.52525m  700.0000m   32.3928m  714.7866m   17.6062m 
  482.62525m  700.0000m   32.3880m  714.9232m   17.4648m 
  482.72525m  700.0000m   32.3832m  715.0598m   17.3234m 
  482.82525m  700.0000m   32.3784m  715.1964m   17.1820m 
  482.92525m  700.0000m   32.3736m  715.3331m   17.0405m 
  483.02525m  700.0000m   32.3688m  715.4697m   16.8991m 
  483.12525m  700.0000m   32.3640m  715.6063m   16.7577m 
  483.22525m  700.0000m   32.3593m  715.7430m   16.6163m 
  483.32525m  700.0000m   32.3545m  715.8796m   16.4749m 
  483.42525m  700.0000m   32.3497m  716.0162m   16.3334m 
  483.52525m  700.0000m   32.3449m  716.1529m   16.1920m 
  483.62525m  700.0000m   32.3402m  716.2896m   16.0506m 
  483.72525m  700.0000m   32.3354m  716.4262m   15.9092m 
  483.82525m  700.0000m   32.3306m  716.5629m   15.7678m 
  483.92525m  700.0000m   32.3259m  716.6995m   15.6263m 
  484.02525m  700.0000m   32.3211m  716.8362m   15.4849m 
  484.12525m  700.0000m   32.3164m  716.9729m   15.3435m 
  484.22525m  700.0000m   32.3117m  717.1096m   15.2021m 
  484.32525m  700.0000m   32.3069m  717.2463m   15.0606m 
  484.42525m  700.0000m   32.3022m  717.3829m   14.9192m 
  484.52525m  700.0000m   32.2974m  717.5196m   14.7778m 
  484.62525m  700.0000m   32.2927m  717.6563m   14.6364m 
  484.72525m  700.0000m   32.2880m  717.7930m   14.4950m 
  484.82525m  700.0000m   32.2833m  717.9297m   14.3535m 
  484.92525m  700.0000m   32.2786m  718.0664m   14.2121m 
  485.02525m  700.0000m   32.2739m  718.2032m   14.0707m 
  485.12525m  700.0000m   32.2692m  718.3399m   13.9293m 
  485.22525m  700.0000m   32.2645m  718.4766m   13.7879m 
  485.32525m  700.0000m   32.2598m  718.6133m   13.6464m 
  485.42525m  700.0000m   32.2551m  718.7500m   13.5050m 
  485.52525m  700.0000m   32.2504m  718.8868m   13.3636m 
  485.62525m  700.0000m   32.2457m  719.0235m   13.2222m 
  485.72525m  700.0000m   32.2410m  719.1602m   13.0807m 
  485.82525m  700.0000m   32.2363m  719.2970m   12.9393m 
  485.92525m  700.0000m   32.2316m  719.4337m   12.7979m 
  486.02525m  700.0000m   32.2270m  719.5705m   12.6565m 
  486.12525m  700.0000m   32.2223m  719.7072m   12.5151m 
  486.22525m  700.0000m   32.2176m  719.8440m   12.3736m 
  486.32525m  700.0000m   32.2130m  719.9808m   12.2322m 
  486.42525m  700.0000m   32.2083m  720.1175m   12.0908m 
  486.52525m  700.0000m   32.2037m  720.2543m   11.9494m 
  486.62525m  700.0000m   32.1990m  720.3911m   11.8080m 
  486.72525m  700.0000m   32.1944m  720.5278m   11.6665m 
  486.82525m  700.0000m   32.1898m  720.6646m   11.5251m 
  486.92525m  700.0000m   32.1851m  720.8014m   11.3837m 
  487.02525m  700.0000m   32.1805m  720.9382m   11.2423m 
  487.12525m  700.0000m   32.1759m  721.0750m   11.1008m 
  487.22525m  700.0000m   32.1712m  721.2118m   10.9594m 
  487.32525m  700.0000m   32.1666m  721.3486m   10.8180m 
  487.42525m  700.0000m   32.1620m  721.4854m   10.6766m 
  487.52525m  700.0000m   32.1574m  721.6222m   10.5352m 
  487.62525m  700.0000m   32.1528m  721.7590m   10.3937m 
  487.72525m  700.0000m   32.1482m  721.8958m   10.2523m 
  487.82525m  700.0000m   32.1436m  722.0327m   10.1109m 
  487.92525m  700.0000m   32.1390m  722.1695m    9.9695m 
  488.02525m  700.0000m   32.1344m  722.3063m    9.8281m 
  488.12525m  700.0000m   32.1298m  722.4431m    9.6866m 
  488.22525m  700.0000m   32.1252m  722.5800m    9.5452m 
  488.32525m  700.0000m   32.1206m  722.7168m    9.4038m 
  488.42525m  700.0000m   32.1160m  722.8537m    9.2624m 
  488.52525m  700.0000m   32.1115m  722.9905m    9.1210m 
  488.62525m  700.0000m   32.1069m  723.1274m    8.9795m 
  488.72525m  700.0000m   32.1023m  723.2642m    8.8381m 
  488.82525m  700.0000m   32.0978m  723.4011m    8.6967m 
  488.92525m  700.0000m   32.0932m  723.5379m    8.5553m 
  489.02525m  700.0000m   32.0887m  723.6748m    8.4138m 
  489.12525m  700.0000m   32.0841m  723.8117m    8.2724m 
  489.22525m  700.0000m   32.0796m  723.9485m    8.1310m 
  489.32525m  700.0000m   32.0750m  724.0854m    7.9896m 
  489.42525m  700.0000m   32.0705m  724.2223m    7.8482m 
  489.52525m  700.0000m   32.0659m  724.3592m    7.7067m 
  489.62525m  700.0000m   32.0614m  724.4961m    7.5653m 
  489.72525m  700.0000m   32.0569m  724.6330m    7.4239m 
  489.82525m  700.0000m   32.0524m  724.7699m    7.2825m 
  489.92525m  700.0000m   32.0478m  724.9068m    7.1411m 
  490.02525m  700.0000m   32.0433m  725.0437m    6.9996m 
  490.12525m  700.0000m   32.0388m  725.1806m    6.8582m 
  490.22525m  700.0000m   32.0343m  725.3175m    6.7168m 
  490.32525m  700.0000m   32.0298m  725.4544m    6.5754m 
  490.42525m  700.0000m   32.0253m  725.5913m    6.4339m 
  490.52525m  700.0000m   32.0208m  725.7283m    6.2925m 
  490.62525m  700.0000m   32.0163m  725.8652m    6.1511m 
  490.72525m  700.0000m   32.0118m  726.0021m    6.0097m 
  490.82525m  700.0000m   32.0073m  726.1390m    5.8683m 
  490.92525m  700.0000m   32.0028m  726.2760m    5.7268m 
  491.02525m  700.0000m   31.9983m  726.4129m    5.5854m 
  491.12525m  700.0000m   31.9939m  726.5499m    5.4440m 
  491.22525m  700.0000m   31.9894m  726.6868m    5.3026m 
  491.32525m  700.0000m   31.9849m  726.8238m    5.1612m 
  491.42525m  700.0000m   31.9805m  726.9607m    5.0197m 
  491.52525m  700.0000m   31.9760m  727.0977m    4.8783m 
  491.62525m  700.0000m   31.9715m  727.2346m    4.7369m 
  491.72525m  700.0000m   31.9671m  727.3716m    4.5955m 
  491.82525m  700.0000m   31.9626m  727.5086m    4.4540m 
  491.92525m  700.0000m   31.9582m  727.6456m    4.3126m 
  492.02525m  700.0000m   31.9538m  727.7825m    4.1712m 
  492.12525m  700.0000m   31.9493m  727.9195m    4.0298m 
  492.22525m  700.0000m   31.9449m  728.0565m    3.8884m 
  492.32525m  700.0000m   31.9404m  728.1935m    3.7469m 
  492.42525m  700.0000m   31.9360m  728.3305m    3.6055m 
  492.52525m  700.0000m   31.9316m  728.4675m    3.4641m 
  492.62525m  700.0000m   31.9272m  728.6045m    3.3227m 
  492.72525m  700.0000m   31.9228m  728.7415m    3.1813m 
  492.82525m  700.0000m   31.9183m  728.8785m    3.0398m 
  492.92525m  700.0000m   31.9139m  729.0155m    2.8984m 
  493.02525m  700.0000m   31.9095m  729.1525m    2.7570m 
  493.12525m  700.0000m   31.9051m  729.2895m    2.6156m 
  493.22525m  700.0000m   31.9007m  729.4266m    2.4741m 
  493.32525m  700.0000m   31.8963m  729.5636m    2.3327m 
  493.42525m  700.0000m   31.8919m  729.7006m    2.1913m 
  493.52525m  700.0000m   31.8875m  729.8377m    2.0499m 
  493.62525m  700.0000m   31.8832m  729.9747m    1.9085m 
  493.72525m  700.0000m   31.8788m  730.1117m    1.7670m 
  493.82525m  700.0000m   31.8744m  730.2488m    1.6256m 
  493.92525m  700.0000m   31.8700m  730.3858m    1.4842m 
  494.02525m  700.0000m   31.8657m  730.5229m    1.3428m 
  494.12525m  700.0000m   31.8613m  730.6599m    1.2014m 
  494.22525m  700.0000m   31.8569m  730.7970m    1.0599m 
  494.32525m  700.0000m   31.8526m  730.9340m  918.5146u 
  494.42525m  700.0000m   31.8482m  731.0711m  777.0933u 
  494.52525m  700.0000m   31.8439m  731.2082m  635.6720u 
  494.62525m  700.0000m   31.8395m  731.3453m  494.2507u 
  494.72525m  700.0000m   31.8352m  731.4823m  352.8294u 
  494.82525m  700.0000m   31.8308m  731.6194m  211.4080u 
  494.92525m  700.0000m   31.8265m  731.7565m   69.9867u 
y
 max_1= 361.0394m    at=-236.4747m
             from=-494.9747m    to= 494.9253m
 max_2= 361.0394m    at= 236.4253m
             from=-494.9747m    to= 494.9253m
 snm= 255.2934m
 ******  
 .title noise margin in read operation

 ****** operating point information tnom=  25.000 temp=  25.000 ******
 ****** operating point status is all       simulation time is     0.     
    node    =voltage      node    =voltage      node    =voltage

 +0:bl      = 700.0000m 0:blb     = 700.0000m 0:gl      = 369.3034m
 +0:gr      = 369.3034m 0:q       = 369.3034m 0:qb      = 369.3034m
 +0:u       =   0.      0:v1      = 522.2738m 0:v2      = 522.2738m
 +0:vdd     = 700.0000m 0:wl      = 500.0000m 0:x       = 639.8491m


 **** voltage sources

 subckt                                   
 element  0:vu       0:vvdd     0:vwl     
  volts      0.       700.0000m  500.0000m
  current    0.      -998.2708n    8.9072f
  power      0.       698.7895n   -4.4536f

     total voltage source power dissipation=  698.7895n       watts



 **** voltage-controlled voltage sources


 subckt                                              
 element  0:eli      0:ev1      0:eri      0:ev2     
  volts    369.3034m  522.2738m  369.3034m  522.2738m
  current   16.1774f    0.        16.1774f    0.     





 **** mosfets


 subckt                                                                    
 element  0:mpr      0:mnr      0:mpl      0:mnl      0:mnpr     0:mnpl    
 model    0:pmos_sra 0:nmos_sra 0:pmos_sra 0:nmos_sra 0:nmos_sra 0:nmos_sra
 region   Subth      Subth      Subth      Subth      Subth      Subth     
  id      -499.1354n  499.2077n -499.1354n  499.2077n   72.3314p   72.3314p
  ibs        0.         0.         0.         0.         0.         0.     
  ibd        0.         0.         0.         0.         0.         0.     
  vgs     -330.6966m  369.3034m -330.6966m  369.3034m  130.6966m  130.6966m
  vds     -330.6966m  369.3034m -330.6966m  369.3034m  330.6966m  330.6966m
  vbs      -60.1509m  639.8491m  -60.1509m  639.8491m  270.5457m  270.5457m
  vth     -334.7550m  408.4972m -334.7550m  408.4972m  408.7099m  408.7099m
  vdsat    -95.5214m   79.1203m  -95.5214m   79.1203m   70.6705m   70.6705m
  vod        4.0583m  -39.1939m    4.0583m  -39.1939m -278.0133m -278.0133m
  beta       1.6413m    2.1736m    1.6413m    2.1736m    2.1736m    2.1736m
  gam eff    0.         0.         0.         0.         0.         0.     
  gm        12.9900u   15.4008u   12.9900u   15.4008u    2.7465n    2.7465n
  gds      301.4450n  239.6428n  301.4450n  239.6428n   53.7674p   53.7674p
  gmb        4.9566p   11.8027p    4.9566p   11.8027p  995.3873a  995.3873a
  cdtot     10.1750a   10.2205a   10.1750a   10.2205a   10.2225a   10.2225a
  cgtot     31.2780a   26.1431a   31.2780a   26.1431a   20.4463a   20.4463a
  cstot     17.2861a   14.0663a   17.2861a   14.0663a   10.2234a   10.2234a
  cbtot      0.         0.         0.         0.         0.         0.     
  cgs       21.2135a   15.9424a   21.2135a   15.9424a   10.2238a   10.2238a
  cgd       10.0646a   10.2007a   10.0646a   10.2007a   10.2225a   10.2225a




          ***** job concluded
 ******  
 .title noise margin in read operation

 ****** job statistics summary tnom=  25.000 temp=  25.000 ******

  ******  Circuit Statistics  ******
  # nodes       =      13 # elements   =      15
  # resistors   =       0 # capacitors =       2 # inductors   =       0
  # mutual_inds =       0 # vccs       =       0 # vcvs        =       4
  # cccs        =       0 # ccvs       =       0 # volt_srcs   =       3
  # curr_srcs   =       0 # diodes     =       0 # bjts        =       0
  # jfets       =       0 # mosfets    =       6 # U elements  =       0
  # T elements  =       0 # W elements =       0 # B elements  =       0
  # S elements  =       0 # P elements =       0 # va device   =       0
  # vector_srcs =       0 # N elements =       0


  ******  Runtime Statistics (seconds)  ******

  analysis           time    # points   tot. iter  conv.iter
  op point           0.01           1          10
  dc sweep           0.72        9900       29710
  readin             0.00
  errchk             0.00
  setup              0.00
  output             0.00


           peak memory used        406.95 megabytes
           total cpu time            0.79 seconds
           total elapsed time        0.81 seconds
           job started at     20:53:30 03/23/2025
           job ended   at     20:53:35 03/23/2025
           job total runtime         4.27 seconds


 lic: Release hspice token(s) 
 lic: total license checkout elapse time:        0.15(s)
