 ****** HSPICE -- Q-2020.03-SP2-2 linux64 (Nov  1 2020) ******                  
  Copyright (c) 1986 - 2025 by Synopsys, Inc. All Rights Reserved.              
  This software and the associated documentation are proprietary
  to Synopsys, Inc. This software may only be used in accordance
  with the terms and conditions of a written license agreement with
  Synopsys, Inc. All other use, reproduction, or distribution of
  this software is strictly prohibited.
  Input File: SRAM_RSNM_TT_DifSupply.sp                                         
  Command line options: /RAID2/cad/synopsys/hspice/2020.03-sp2-2/hspice/linux64/hspice -i SRAM_RSNM_TT_DifSupply.sp -o SRAM_RSNM_TT_DifSupply.lis
  Start time: Sun Mar 23 20:40:12 2025
 lic:  
 lic: FLEXlm: SDK_12.6 
 lic: USER:   es25MCS042           HOSTNAME: ee28 
 lic: HOSTID: "d85ed3efc19a"       PID:      66504 
 lic: Using FLEXlm license file: 
 lic: 26585@lshc 
 lic: Checkout 1 hspice 
 lic: License/Maintenance for hspice will expire on 14-may-2025/2024.09 
 lic: 193(in_use)/1100(total) FLOATING license(s) on SERVER 26585@lshc 
 lic:   
  
      
             
 Warning:'Floating bulk' occurs 1 times
 Summary of floating bulk:
 -----------------------
 |Node      |Device    |
 |----------+----------|
 |x         |mpr       |
 -----------------------
              
 *****************************************************************
 ******  option summary
 ******
 runlvl  = 3         bypass  = 2.0000    
 ******
 .title noise margin in hold operation

 ****** dc transfer curves tnom=  25.000 temp=  25.000 ******
x

 volt         voltage    voltage    voltage    voltage   
             q          qb         gl         gr         
 -494.97475m  105.5790m  700.0000m   -7.8138n  805.5790m 
 -494.87475m  105.5899m  700.0000m  141.4135u  805.4485m 
 -494.77475m  105.6008m  700.0000m  282.8348u  805.3180m 
 -494.67475m  105.6117m  700.0000m  424.2562u  805.1874m 
 -494.57475m  105.6226m  700.0000m  565.6775u  805.0569m 
 -494.47475m  105.6335m  700.0000m  707.0988u  804.9264m 
 -494.37475m  105.6445m  700.0000m  848.5201u  804.7960m 
 -494.27475m  105.6554m  700.0000m  989.9414u  804.6655m 
 -494.17475m  105.6664m  700.0000m    1.1314m  804.5350m 
 -494.07475m  105.6773m  700.0000m    1.2728m  804.4045m 
 -493.97475m  105.6883m  700.0000m    1.4142m  804.2741m 
 -493.87475m  105.6993m  700.0000m    1.5556m  804.1436m 
 -493.77475m  105.7102m  700.0000m    1.6970m  804.0132m 
 -493.67475m  105.7212m  700.0000m    1.8385m  803.8827m 
 -493.57475m  105.7322m  700.0000m    1.9799m  803.7523m 
 -493.47475m  105.7432m  700.0000m    2.1213m  803.6219m 
 -493.37475m  105.7542m  700.0000m    2.2627m  803.4915m 
 -493.27475m  105.7652m  700.0000m    2.4042m  803.3611m 
 -493.17475m  105.7763m  700.0000m    2.5456m  803.2307m 
 -493.07475m  105.7873m  700.0000m    2.6870m  803.1003m 
 -492.97475m  105.7983m  700.0000m    2.8284m  802.9699m 
 -492.87475m  105.8094m  700.0000m    2.9698m  802.8395m 
 -492.77475m  105.8204m  700.0000m    3.1113m  802.7092m 
 -492.67475m  105.8315m  700.0000m    3.2527m  802.5788m 
 -492.57475m  105.8426m  700.0000m    3.3941m  802.4485m 
 -492.47475m  105.8537m  700.0000m    3.5355m  802.3181m 
 -492.37475m  105.8647m  700.0000m    3.6769m  802.1878m 
 -492.27475m  105.8758m  700.0000m    3.8184m  802.0575m 
 -492.17475m  105.8869m  700.0000m    3.9598m  801.9271m 
 -492.07475m  105.8981m  700.0000m    4.1012m  801.7968m 
 -491.97475m  105.9092m  700.0000m    4.2426m  801.6665m 
 -491.87475m  105.9203m  700.0000m    4.3841m  801.5362m 
 -491.77475m  105.9314m  700.0000m    4.5255m  801.4059m 
 -491.67475m  105.9426m  700.0000m    4.6669m  801.2757m 
 -491.57475m  105.9537m  700.0000m    4.8083m  801.1454m 
 -491.47475m  105.9649m  700.0000m    4.9497m  801.0151m 
 -491.37475m  105.9761m  700.0000m    5.0912m  800.8849m 
 -491.27475m  105.9872m  700.0000m    5.2326m  800.7546m 
 -491.17475m  105.9984m  700.0000m    5.3740m  800.6244m 
 -491.07475m  106.0096m  700.0000m    5.5154m  800.4942m 
 -490.97475m  106.0208m  700.0000m    5.6568m  800.3639m 
 -490.87475m  106.0320m  700.0000m    5.7983m  800.2337m 
 -490.77475m  106.0432m  700.0000m    5.9397m  800.1035m 
 -490.67475m  106.0544m  700.0000m    6.0811m  799.9733m 
 -490.57475m  106.0657m  700.0000m    6.2225m  799.8431m 
 -490.47475m  106.0769m  700.0000m    6.3640m  799.7130m 
 -490.37475m  106.0882m  700.0000m    6.5054m  799.5828m 
 -490.27475m  106.0994m  700.0000m    6.6468m  799.4526m 
 -490.17475m  106.1107m  700.0000m    6.7882m  799.3225m 
 -490.07475m  106.1219m  700.0000m    6.9296m  799.1923m 
 -489.97475m  106.1332m  700.0000m    7.0711m  799.0622m 
 -489.87475m  106.1445m  700.0000m    7.2125m  798.9320m 
 -489.77475m  106.1558m  700.0000m    7.3539m  798.8019m 
 -489.67475m  106.1671m  700.0000m    7.4953m  798.6718m 
 -489.57475m  106.1784m  700.0000m    7.6367m  798.5417m 
 -489.47475m  106.1897m  700.0000m    7.7782m  798.4116m 
 -489.37475m  106.2011m  700.0000m    7.9196m  798.2815m 
 -489.27475m  106.2124m  700.0000m    8.0610m  798.1514m 
 -489.17475m  106.2237m  700.0000m    8.2024m  798.0213m 
 -489.07475m  106.2351m  700.0000m    8.3438m  797.8912m 
 -488.97475m  106.2465m  700.0000m    8.4853m  797.7612m 
 -488.87475m  106.2578m  700.0000m    8.6267m  797.6311m 
 -488.77475m  106.2692m  700.0000m    8.7681m  797.5011m 
 -488.67475m  106.2806m  700.0000m    8.9095m  797.3710m 
 -488.57475m  106.2920m  700.0000m    9.0510m  797.2410m 
 -488.47475m  106.3034m  700.0000m    9.1924m  797.1110m 
 -488.37475m  106.3148m  700.0000m    9.3338m  796.9810m 
 -488.27475m  106.3262m  700.0000m    9.4752m  796.8510m 
 -488.17475m  106.3376m  700.0000m    9.6166m  796.7210m 
 -488.07475m  106.3491m  700.0000m    9.7581m  796.5910m 
 -487.97475m  106.3605m  700.0000m    9.8995m  796.4610m 
 -487.87475m  106.3720m  700.0000m   10.0409m  796.3310m 
 -487.77475m  106.3834m  700.0000m   10.1823m  796.2011m 
 -487.67475m  106.3949m  700.0000m   10.3237m  796.0711m 
 -487.57475m  106.4064m  700.0000m   10.4652m  795.9412m 
 -487.47475m  106.4178m  700.0000m   10.6066m  795.8112m 
 -487.37475m  106.4293m  700.0000m   10.7480m  795.6813m 
 -487.27475m  106.4408m  700.0000m   10.8894m  795.5514m 
 -487.17475m  106.4523m  700.0000m   11.0309m  795.4215m 
 -487.07475m  106.4638m  700.0000m   11.1723m  795.2916m 
 -486.97475m  106.4754m  700.0000m   11.3137m  795.1617m 
 -486.87475m  106.4869m  700.0000m   11.4551m  795.0318m 
 -486.77475m  106.4984m  700.0000m   11.5965m  794.9019m 
 -486.67475m  106.5100m  700.0000m   11.7380m  794.7720m 
 -486.57475m  106.5216m  700.0000m   11.8794m  794.6422m 
 -486.47475m  106.5331m  700.0000m   12.0208m  794.5123m 
 -486.37475m  106.5447m  700.0000m   12.1622m  794.3825m 
 -486.27475m  106.5563m  700.0000m   12.3036m  794.2526m 
 -486.17475m  106.5679m  700.0000m   12.4451m  794.1228m 
 -486.07475m  106.5795m  700.0000m   12.5865m  793.9930m 
 -485.97475m  106.5911m  700.0000m   12.7279m  793.8631m 
 -485.87475m  106.6027m  700.0000m   12.8693m  793.7333m 
 -485.77475m  106.6143m  700.0000m   13.0108m  793.6035m 
 -485.67475m  106.6259m  700.0000m   13.1522m  793.4738m 
 -485.57475m  106.6376m  700.0000m   13.2936m  793.3440m 
 -485.47475m  106.6492m  700.0000m   13.4350m  793.2142m 
 -485.37475m  106.6609m  700.0000m   13.5764m  793.0844m 
 -485.27475m  106.6725m  700.0000m   13.7179m  792.9547m 
 -485.17475m  106.6842m  700.0000m   13.8593m  792.8249m 
 -485.07475m  106.6959m  700.0000m   14.0007m  792.6952m 
 -484.97475m  106.7076m  700.0000m   14.1421m  792.5655m 
 -484.87475m  106.7193m  700.0000m   14.2835m  792.4357m 
 -484.77475m  106.7310m  700.0000m   14.4250m  792.3060m 
 -484.67475m  106.7427m  700.0000m   14.5664m  792.1763m 
 -484.57475m  106.7544m  700.0000m   14.7078m  792.0466m 
 -484.47475m  106.7662m  700.0000m   14.8492m  791.9169m 
 -484.37475m  106.7779m  700.0000m   14.9907m  791.7873m 
 -484.27475m  106.7897m  700.0000m   15.1321m  791.6576m 
 -484.17475m  106.8014m  700.0000m   15.2735m  791.5279m 
 -484.07475m  106.8132m  700.0000m   15.4149m  791.3983m 
 -483.97475m  106.8250m  700.0000m   15.5563m  791.2686m 
 -483.87475m  106.8368m  700.0000m   15.6978m  791.1390m 
 -483.77475m  106.8485m  700.0000m   15.8392m  791.0094m 
 -483.67475m  106.8603m  700.0000m   15.9806m  790.8797m 
 -483.57475m  106.8722m  700.0000m   16.1220m  790.7501m 
 -483.47475m  106.8840m  700.0000m   16.2634m  790.6205m 
 -483.37475m  106.8958m  700.0000m   16.4049m  790.4909m 
 -483.27475m  106.9076m  700.0000m   16.5463m  790.3613m 
 -483.17475m  106.9195m  700.0000m   16.6877m  790.2318m 
 -483.07475m  106.9313m  700.0000m   16.8291m  790.1022m 
 -482.97475m  106.9432m  700.0000m   16.9705m  789.9726m 
 -482.87475m  106.9551m  700.0000m   17.1120m  789.8431m 
 -482.77475m  106.9669m  700.0000m   17.2534m  789.7135m 
 -482.67475m  106.9788m  700.0000m   17.3948m  789.5840m 
 -482.57475m  106.9907m  700.0000m   17.5362m  789.4545m 
 -482.47475m  107.0026m  700.0000m   17.6777m  789.3249m 
 -482.37475m  107.0145m  700.0000m   17.8191m  789.1954m 
 -482.27475m  107.0265m  700.0000m   17.9605m  789.0659m 
 -482.17475m  107.0384m  700.0000m   18.1019m  788.9364m 
 -482.07475m  107.0503m  700.0000m   18.2433m  788.8070m 
 -481.97475m  107.0623m  700.0000m   18.3848m  788.6775m 
 -481.87475m  107.0742m  700.0000m   18.5262m  788.5480m 
 -481.77475m  107.0862m  700.0000m   18.6676m  788.4186m 
 -481.67475m  107.0982m  700.0000m   18.8090m  788.2891m 
 -481.57475m  107.1101m  700.0000m   18.9504m  788.1597m 
 -481.47475m  107.1221m  700.0000m   19.0919m  788.0302m 
 -481.37475m  107.1341m  700.0000m   19.2333m  787.9008m 
 -481.27475m  107.1461m  700.0000m   19.3747m  787.7714m 
 -481.17475m  107.1582m  700.0000m   19.5161m  787.6420m 
 -481.07475m  107.1702m  700.0000m   19.6576m  787.5126m 
 -480.97475m  107.1822m  700.0000m   19.7990m  787.3832m 
 -480.87475m  107.1943m  700.0000m   19.9404m  787.2538m 
 -480.77475m  107.2063m  700.0000m   20.0818m  787.1245m 
 -480.67475m  107.2184m  700.0000m   20.2232m  786.9951m 
 -480.57475m  107.2304m  700.0000m   20.3647m  786.8658m 
 -480.47475m  107.2425m  700.0000m   20.5061m  786.7364m 
 -480.37475m  107.2546m  700.0000m   20.6475m  786.6071m 
 -480.27475m  107.2667m  700.0000m   20.7889m  786.4777m 
 -480.17475m  107.2788m  700.0000m   20.9303m  786.3484m 
 -480.07475m  107.2909m  700.0000m   21.0718m  786.2191m 
 -479.97475m  107.3030m  700.0000m   21.2132m  786.0898m 
 -479.87475m  107.3152m  700.0000m   21.3546m  785.9605m 
 -479.77475m  107.3273m  700.0000m   21.4960m  785.8312m 
 -479.67475m  107.3394m  700.0000m   21.6375m  785.7020m 
 -479.57475m  107.3516m  700.0000m   21.7789m  785.5727m 
 -479.47475m  107.3638m  700.0000m   21.9203m  785.4435m 
 -479.37475m  107.3759m  700.0000m   22.0617m  785.3142m 
 -479.27475m  107.3881m  700.0000m   22.2031m  785.1850m 
 -479.17475m  107.4003m  700.0000m   22.3446m  785.0557m 
 -479.07475m  107.4125m  700.0000m   22.4860m  784.9265m 
 -478.97475m  107.4247m  700.0000m   22.6274m  784.7973m 
 -478.87475m  107.4369m  700.0000m   22.7688m  784.6681m 
 -478.77475m  107.4492m  700.0000m   22.9102m  784.5389m 
 -478.67475m  107.4614m  700.0000m   23.0517m  784.4097m 
 -478.57475m  107.4736m  700.0000m   23.1931m  784.2805m 
 -478.47475m  107.4859m  700.0000m   23.3345m  784.1514m 
 -478.37475m  107.4982m  700.0000m   23.4759m  784.0222m 
 -478.27475m  107.5104m  700.0000m   23.6173m  783.8931m 
 -478.17475m  107.5227m  700.0000m   23.7588m  783.7639m 
 -478.07475m  107.5350m  700.0000m   23.9002m  783.6348m 
 -477.97475m  107.5473m  700.0000m   24.0416m  783.5057m 
 -477.87475m  107.5596m  700.0000m   24.1830m  783.3766m 
 -477.77475m  107.5719m  700.0000m   24.3245m  783.2475m 
 -477.67475m  107.5843m  700.0000m   24.4659m  783.1184m 
 -477.57475m  107.5966m  700.0000m   24.6073m  782.9893m 
 -477.47475m  107.6089m  700.0000m   24.7487m  782.8602m 
 -477.37475m  107.6213m  700.0000m   24.8901m  782.7311m 
 -477.27475m  107.6336m  700.0000m   25.0316m  782.6021m 
 -477.17475m  107.6460m  700.0000m   25.1730m  782.4730m 
 -477.07475m  107.6584m  700.0000m   25.3144m  782.3440m 
 -476.97475m  107.6708m  700.0000m   25.4558m  782.2149m 
 -476.87475m  107.6832m  700.0000m   25.5972m  782.0859m 
 -476.77475m  107.6956m  700.0000m   25.7387m  781.9569m 
 -476.67475m  107.7080m  700.0000m   25.8801m  781.8279m 
 -476.57475m  107.7204m  700.0000m   26.0215m  781.6989m 
 -476.47475m  107.7329m  700.0000m   26.1629m  781.5699m 
 -476.37475m  107.7453m  700.0000m   26.3044m  781.4409m 
 -476.27475m  107.7578m  700.0000m   26.4458m  781.3120m 
 -476.17475m  107.7702m  700.0000m   26.5872m  781.1830m 
 -476.07475m  107.7827m  700.0000m   26.7286m  781.0541m 
 -475.97475m  107.7952m  700.0000m   26.8700m  780.9251m 
 -475.87475m  107.8077m  700.0000m   27.0115m  780.7962m 
 -475.77475m  107.8202m  700.0000m   27.1529m  780.6673m 
 -475.67475m  107.8327m  700.0000m   27.2943m  780.5383m 
 -475.57475m  107.8452m  700.0000m   27.4357m  780.4094m 
 -475.47475m  107.8577m  700.0000m   27.5771m  780.2805m 
 -475.37475m  107.8702m  700.0000m   27.7186m  780.1516m 
 -475.27475m  107.8828m  700.0000m   27.8600m  780.0228m 
 -475.17475m  107.8953m  700.0000m   28.0014m  779.8939m 
 -475.07475m  107.9079m  700.0000m   28.1428m  779.7650m 
 -474.97475m  107.9205m  700.0000m   28.2843m  779.6362m 
 -474.87475m  107.9330m  700.0000m   28.4257m  779.5073m 
 -474.77475m  107.9456m  700.0000m   28.5671m  779.3785m 
 -474.67475m  107.9582m  700.0000m   28.7085m  779.2497m 
 -474.57475m  107.9708m  700.0000m   28.8499m  779.1209m 
 -474.47475m  107.9835m  700.0000m   28.9914m  778.9921m 
 -474.37475m  107.9961m  700.0000m   29.1328m  778.8633m 
 -474.27475m  108.0087m  700.0000m   29.2742m  778.7345m 
 -474.17475m  108.0214m  700.0000m   29.4156m  778.6057m 
 -474.07475m  108.0340m  700.0000m   29.5570m  778.4770m 
 -473.97475m  108.0467m  700.0000m   29.6985m  778.3482m 
 -473.87475m  108.0594m  700.0000m   29.8399m  778.2194m 
 -473.77475m  108.0720m  700.0000m   29.9813m  778.0907m 
 -473.67475m  108.0847m  700.0000m   30.1227m  777.9620m 
 -473.57475m  108.0974m  700.0000m   30.2641m  777.8333m 
 -473.47475m  108.1101m  700.0000m   30.4056m  777.7045m 
 -473.37475m  108.1229m  700.0000m   30.5470m  777.5758m 
 -473.27475m  108.1356m  700.0000m   30.6884m  777.4471m 
 -473.17475m  108.1483m  700.0000m   30.8298m  777.3185m 
 -473.07475m  108.1611m  700.0000m   30.9713m  777.1898m 
 -472.97475m  108.1738m  700.0000m   31.1127m  777.0611m 
 -472.87475m  108.1866m  700.0000m   31.2541m  776.9325m 
 -472.77475m  108.1994m  700.0000m   31.3955m  776.8038m 
 -472.67475m  108.2121m  700.0000m   31.5369m  776.6752m 
 -472.57475m  108.2249m  700.0000m   31.6784m  776.5466m 
 -472.47475m  108.2377m  700.0000m   31.8198m  776.4179m 
 -472.37475m  108.2506m  700.0000m   31.9612m  776.2893m 
 -472.27475m  108.2634m  700.0000m   32.1026m  776.1607m 
 -472.17475m  108.2762m  700.0000m   32.2440m  776.0321m 
 -472.07475m  108.2891m  700.0000m   32.3855m  775.9036m 
 -471.97475m  108.3019m  700.0000m   32.5269m  775.7750m 
 -471.87475m  108.3148m  700.0000m   32.6683m  775.6464m 
 -471.77475m  108.3276m  700.0000m   32.8097m  775.5179m 
 -471.67475m  108.3405m  700.0000m   32.9512m  775.3893m 
 -471.57475m  108.3534m  700.0000m   33.0926m  775.2608m 
 -471.47475m  108.3663m  700.0000m   33.2340m  775.1323m 
 -471.37475m  108.3792m  700.0000m   33.3754m  775.0038m 
 -471.27475m  108.3921m  700.0000m   33.5168m  774.8753m 
 -471.17475m  108.4050m  700.0000m   33.6583m  774.7468m 
 -471.07475m  108.4180m  700.0000m   33.7997m  774.6183m 
 -470.97475m  108.4309m  700.0000m   33.9411m  774.4898m 
 -470.87475m  108.4439m  700.0000m   34.0825m  774.3613m 
 -470.77475m  108.4568m  700.0000m   34.2239m  774.2329m 
 -470.67475m  108.4698m  700.0000m   34.3654m  774.1044m 
 -470.57475m  108.4828m  700.0000m   34.5068m  773.9760m 
 -470.47475m  108.4958m  700.0000m   34.6482m  773.8476m 
 -470.37475m  108.5088m  700.0000m   34.7896m  773.7191m 
 -470.27475m  108.5218m  700.0000m   34.9310m  773.5907m 
 -470.17475m  108.5348m  700.0000m   35.0725m  773.4623m 
 -470.07475m  108.5479m  700.0000m   35.2139m  773.3340m 
 -469.97475m  108.5609m  700.0000m   35.3553m  773.2056m 
 -469.87475m  108.5740m  700.0000m   35.4967m  773.0772m 
 -469.77475m  108.5870m  700.0000m   35.6382m  772.9488m 
 -469.67475m  108.6001m  700.0000m   35.7796m  772.8205m 
 -469.57475m  108.6132m  700.0000m   35.9210m  772.6921m 
 -469.47475m  108.6263m  700.0000m   36.0624m  772.5638m 
 -469.37475m  108.6394m  700.0000m   36.2038m  772.4355m 
 -469.27475m  108.6525m  700.0000m   36.3453m  772.3072m 
 -469.17475m  108.6656m  700.0000m   36.4867m  772.1789m 
 -469.07475m  108.6787m  700.0000m   36.6281m  772.0506m 
 -468.97475m  108.6919m  700.0000m   36.7695m  771.9223m 
 -468.87475m  108.7050m  700.0000m   36.9109m  771.7940m 
 -468.77475m  108.7182m  700.0000m   37.0524m  771.6658m 
 -468.67475m  108.7313m  700.0000m   37.1938m  771.5375m 
 -468.57475m  108.7445m  700.0000m   37.3352m  771.4093m 
 -468.47475m  108.7577m  700.0000m   37.4766m  771.2810m 
 -468.37475m  108.7709m  700.0000m   37.6181m  771.1528m 
 -468.27475m  108.7841m  700.0000m   37.7595m  771.0246m 
 -468.17475m  108.7973m  700.0000m   37.9009m  770.8964m 
 -468.07475m  108.8105m  700.0000m   38.0423m  770.7682m 
 -467.97475m  108.8238m  700.0000m   38.1837m  770.6400m 
 -467.87475m  108.8370m  700.0000m   38.3252m  770.5118m 
 -467.77475m  108.8503m  700.0000m   38.4666m  770.3837m 
 -467.67475m  108.8635m  700.0000m   38.6080m  770.2555m 
 -467.57475m  108.8768m  700.0000m   38.7494m  770.1274m 
 -467.47475m  108.8901m  700.0000m   38.8908m  769.9992m 
 -467.37475m  108.9034m  700.0000m   39.0323m  769.8711m 
 -467.27475m  108.9167m  700.0000m   39.1737m  769.7430m 
 -467.17475m  108.9300m  700.0000m   39.3151m  769.6149m 
 -467.07475m  108.9433m  700.0000m   39.4565m  769.4868m 
 -466.97475m  108.9567m  700.0000m   39.5979m  769.3587m 
 -466.87475m  108.9700m  700.0000m   39.7394m  769.2306m 
 -466.77475m  108.9834m  700.0000m   39.8808m  769.1025m 
 -466.67475m  108.9967m  700.0000m   40.0222m  768.9745m 
 -466.57475m  109.0101m  700.0000m   40.1636m  768.8464m 
 -466.47475m  109.0235m  700.0000m   40.3051m  768.7184m 
 -466.37475m  109.0369m  700.0000m   40.4465m  768.5904m 
 -466.27475m  109.0503m  700.0000m   40.5879m  768.4623m 
 -466.17475m  109.0637m  700.0000m   40.7293m  768.3343m 
 -466.07475m  109.0771m  700.0000m   40.8707m  768.2063m 
 -465.97475m  109.0905m  700.0000m   41.0122m  768.0783m 
 -465.87475m  109.1040m  700.0000m   41.1536m  767.9504m 
 -465.77475m  109.1174m  700.0000m   41.2950m  767.8224m 
 -465.67475m  109.1309m  700.0000m   41.4364m  767.6944m 
 -465.57475m  109.1444m  700.0000m   41.5778m  767.5665m 
 -465.47475m  109.1579m  700.0000m   41.7193m  767.4386m 
 -465.37475m  109.1713m  700.0000m   41.8607m  767.3106m 
 -465.27475m  109.1848m  700.0000m   42.0021m  767.1827m 
 -465.17475m  109.1984m  700.0000m   42.1435m  767.0548m 
 -465.07475m  109.2119m  700.0000m   42.2850m  766.9269m 
 -464.97475m  109.2254m  700.0000m   42.4264m  766.7990m 
 -464.87475m  109.2390m  700.0000m   42.5678m  766.6711m 
 -464.77475m  109.2525m  700.0000m   42.7092m  766.5433m 
 -464.67475m  109.2661m  700.0000m   42.8506m  766.4154m 
 -464.57475m  109.2797m  700.0000m   42.9921m  766.2876m 
 -464.47475m  109.2932m  700.0000m   43.1335m  766.1597m 
 -464.37475m  109.3068m  700.0000m   43.2749m  766.0319m 
 -464.27475m  109.3204m  700.0000m   43.4163m  765.9041m 
 -464.17475m  109.3340m  700.0000m   43.5577m  765.7763m 
 -464.07475m  109.3477m  700.0000m   43.6992m  765.6485m 
 -463.97475m  109.3613m  700.0000m   43.8406m  765.5207m 
 -463.87475m  109.3749m  700.0000m   43.9820m  765.3929m 
 -463.77475m  109.3886m  700.0000m   44.1234m  765.2651m 
 -463.67475m  109.4023m  700.0000m   44.2648m  765.1374m 
 -463.57475m  109.4159m  700.0000m   44.4063m  765.0096m 
 -463.47475m  109.4296m  700.0000m   44.5477m  764.8819m 
 -463.37475m  109.4433m  700.0000m   44.6891m  764.7542m 
 -463.27475m  109.4570m  700.0000m   44.8305m  764.6265m 
 -463.17475m  109.4707m  700.0000m   44.9720m  764.4988m 
 -463.07475m  109.4845m  700.0000m   45.1134m  764.3711m 
 -462.97475m  109.4982m  700.0000m   45.2548m  764.2434m 
 -462.87475m  109.5119m  700.0000m   45.3962m  764.1157m 
 -462.77475m  109.5257m  700.0000m   45.5376m  763.9880m 
 -462.67475m  109.5395m  700.0000m   45.6791m  763.8604m 
 -462.57475m  109.5533m  700.0000m   45.8205m  763.7327m 
 -462.47475m  109.5670m  700.0000m   45.9619m  763.6051m 
 -462.37475m  109.5808m  700.0000m   46.1033m  763.4775m 
 -462.27475m  109.5946m  700.0000m   46.2447m  763.3499m 
 -462.17475m  109.6085m  700.0000m   46.3862m  763.2223m 
 -462.07475m  109.6223m  700.0000m   46.5276m  763.0947m 
 -461.97475m  109.6361m  700.0000m   46.6690m  762.9671m 
 -461.87475m  109.6500m  700.0000m   46.8104m  762.8395m 
 -461.77475m  109.6638m  700.0000m   46.9518m  762.7119m 
 -461.67475m  109.6777m  700.0000m   47.0933m  762.5844m 
 -461.57475m  109.6916m  700.0000m   47.2347m  762.4569m 
 -461.47475m  109.7055m  700.0000m   47.3761m  762.3293m 
 -461.37475m  109.7194m  700.0000m   47.5175m  762.2018m 
 -461.27475m  109.7333m  700.0000m   47.6590m  762.0743m 
 -461.17475m  109.7472m  700.0000m   47.8004m  761.9468m 
 -461.07475m  109.7611m  700.0000m   47.9418m  761.8193m 
 -460.97475m  109.7751m  700.0000m   48.0832m  761.6918m 
 -460.87475m  109.7890m  700.0000m   48.2246m  761.5644m 
 -460.77475m  109.8030m  700.0000m   48.3661m  761.4369m 
 -460.67475m  109.8170m  700.0000m   48.5075m  761.3095m 
 -460.57475m  109.8310m  700.0000m   48.6489m  761.1820m 
 -460.47475m  109.8450m  700.0000m   48.7903m  761.0546m 
 -460.37475m  109.8590m  700.0000m   48.9317m  760.9272m 
 -460.27475m  109.8730m  700.0000m   49.0732m  760.7998m 
 -460.17475m  109.8870m  700.0000m   49.2146m  760.6724m 
 -460.07475m  109.9010m  700.0000m   49.3560m  760.5450m 
 -459.97475m  109.9151m  700.0000m   49.4974m  760.4176m 
 -459.87475m  109.9291m  700.0000m   49.6389m  760.2903m 
 -459.77475m  109.9432m  700.0000m   49.7803m  760.1629m 
 -459.67475m  109.9573m  700.0000m   49.9217m  760.0356m 
 -459.57475m  109.9714m  700.0000m   50.0631m  759.9082m 
 -459.47475m  109.9855m  700.0000m   50.2045m  759.7809m 
 -459.37475m  109.9996m  700.0000m   50.3460m  759.6536m 
 -459.27475m  110.0137m  700.0000m   50.4874m  759.5263m 
 -459.17475m  110.0278m  700.0000m   50.6288m  759.3990m 
 -459.07475m  110.0420m  700.0000m   50.7702m  759.2717m 
 -458.97475m  110.0561m  700.0000m   50.9116m  759.1445m 
 -458.87475m  110.0703m  700.0000m   51.0531m  759.0172m 
 -458.77475m  110.0845m  700.0000m   51.1945m  758.8900m 
 -458.67475m  110.0987m  700.0000m   51.3359m  758.7627m 
 -458.57475m  110.1129m  700.0000m   51.4773m  758.6355m 
 -458.47475m  110.1271m  700.0000m   51.6187m  758.5083m 
 -458.37475m  110.1413m  700.0000m   51.7602m  758.3811m 
 -458.27475m  110.1555m  700.0000m   51.9016m  758.2539m 
 -458.17475m  110.1698m  700.0000m   52.0430m  758.1267m 
 -458.07475m  110.1840m  699.9999m   52.1844m  757.9995m 
 -457.97475m  110.1983m  699.9999m   52.3259m  757.8724m 
 -457.87475m  110.2125m  699.9999m   52.4673m  757.7452m 
 -457.77475m  110.2268m  699.9999m   52.6087m  757.6181m 
 -457.67475m  110.2411m  699.9999m   52.7501m  757.4909m 
 -457.57475m  110.2554m  699.9999m   52.8915m  757.3638m 
 -457.47475m  110.2697m  699.9999m   53.0330m  757.2367m 
 -457.37475m  110.2840m  699.9999m   53.1744m  757.1096m 
 -457.27475m  110.2984m  699.9999m   53.3158m  756.9825m 
 -457.17475m  110.3127m  699.9999m   53.4572m  756.8555m 
 -457.07475m  110.3271m  699.9999m   53.5986m  756.7284m 
 -456.97475m  110.3414m  699.9999m   53.7401m  756.6013m 
 -456.87475m  110.3558m  699.9999m   53.8815m  756.4743m 
 -456.77475m  110.3702m  699.9999m   54.0229m  756.3473m 
 -456.67475m  110.3846m  699.9999m   54.1643m  756.2202m 
 -456.57475m  110.3990m  699.9999m   54.3057m  756.0932m 
 -456.47475m  110.4134m  699.9999m   54.4472m  755.9662m 
 -456.37475m  110.4279m  699.9999m   54.5886m  755.8392m 
 -456.27475m  110.4423m  699.9999m   54.7300m  755.7123m 
 -456.17475m  110.4568m  699.9999m   54.8714m  755.5853m 
 -456.07475m  110.4712m  699.9999m   55.0129m  755.4583m 
 -455.97475m  110.4857m  699.9999m   55.1543m  755.3314m 
 -455.87475m  110.5002m  699.9999m   55.2957m  755.2045m 
 -455.77475m  110.5147m  699.9999m   55.4371m  755.0775m 
 -455.67475m  110.5292m  699.9999m   55.5785m  754.9506m 
 -455.57475m  110.5437m  699.9999m   55.7200m  754.8237m 
 -455.47475m  110.5583m  699.9999m   55.8614m  754.6968m 
 -455.37475m  110.5728m  699.9999m   56.0028m  754.5699m 
 -455.27475m  110.5874m  699.9999m   56.1442m  754.4431m 
 -455.17475m  110.6019m  699.9999m   56.2856m  754.3162m 
 -455.07475m  110.6165m  699.9999m   56.4271m  754.1894m 
 -454.97475m  110.6311m  699.9999m   56.5685m  754.0625m 
 -454.87475m  110.6457m  699.9999m   56.7099m  753.9357m 
 -454.77475m  110.6603m  699.9999m   56.8513m  753.8089m 
 -454.67475m  110.6749m  699.9999m   56.9927m  753.6821m 
 -454.57475m  110.6895m  699.9999m   57.1342m  753.5553m 
 -454.47475m  110.7042m  699.9999m   57.2756m  753.4285m 
 -454.37475m  110.7188m  699.9999m   57.4170m  753.3018m 
 -454.27475m  110.7335m  699.9999m   57.5584m  753.1750m 
 -454.17475m  110.7482m  699.9999m   57.6999m  753.0482m 
 -454.07475m  110.7628m  699.9999m   57.8413m  752.9215m 
 -453.97475m  110.7775m  699.9999m   57.9827m  752.7948m 
 -453.87475m  110.7922m  699.9999m   58.1241m  752.6681m 
 -453.77475m  110.8070m  699.9999m   58.2655m  752.5414m 
 -453.67475m  110.8217m  699.9999m   58.4070m  752.4147m 
 -453.57475m  110.8364m  699.9999m   58.5484m  752.2880m 
 -453.47475m  110.8512m  699.9999m   58.6898m  752.1613m 
 -453.37475m  110.8659m  699.9999m   58.8312m  752.0347m 
 -453.27475m  110.8807m  699.9999m   58.9726m  751.9080m 
 -453.17475m  110.8955m  699.9999m   59.1141m  751.7814m 
 -453.07475m  110.9103m  699.9999m   59.2555m  751.6548m 
 -452.97475m  110.9251m  699.9999m   59.3969m  751.5281m 
 -452.87475m  110.9399m  699.9999m   59.5383m  751.4015m 
 -452.77475m  110.9548m  699.9999m   59.6797m  751.2749m 
 -452.67475m  110.9696m  699.9999m   59.8212m  751.1484m 
 -452.57475m  110.9845m  699.9999m   59.9626m  751.0218m 
 -452.47475m  110.9993m  699.9999m   60.1040m  750.8952m 
 -452.37475m  111.0142m  699.9999m   60.2454m  750.7687m 
 -452.27475m  111.0291m  699.9999m   60.3869m  750.6422m 
 -452.17475m  111.0440m  699.9999m   60.5283m  750.5156m 
 -452.07475m  111.0589m  699.9999m   60.6697m  750.3891m 
 -451.97475m  111.0738m  699.9999m   60.8111m  750.2626m 
 -451.87475m  111.0887m  699.9999m   60.9525m  750.1361m 
 -451.77475m  111.1037m  699.9999m   61.0940m  750.0097m 
 -451.67475m  111.1186m  699.9999m   61.2354m  749.8832m 
 -451.57475m  111.1336m  699.9999m   61.3768m  749.7567m 
 -451.47475m  111.1486m  699.9999m   61.5182m  749.6303m 
 -451.37475m  111.1636m  699.9999m   61.6596m  749.5039m 
 -451.27475m  111.1786m  699.9999m   61.8011m  749.3774m 
 -451.17475m  111.1936m  699.9999m   61.9425m  749.2510m 
 -451.07475m  111.2086m  699.9999m   62.0839m  749.1246m 
 -450.97475m  111.2236m  699.9999m   62.2253m  748.9982m 
 -450.87475m  111.2387m  699.9999m   62.3667m  748.8719m 
 -450.77475m  111.2537m  699.9999m   62.5082m  748.7455m 
 -450.67475m  111.2688m  699.9999m   62.6496m  748.6191m 
 -450.57475m  111.2839m  699.9999m   62.7910m  748.4928m 
 -450.47475m  111.2990m  699.9999m   62.9324m  748.3665m 
 -450.37475m  111.3141m  699.9999m   63.0738m  748.2401m 
 -450.27475m  111.3292m  699.9999m   63.2153m  748.1138m 
 -450.17475m  111.3443m  699.9999m   63.3567m  747.9875m 
 -450.07475m  111.3594m  699.9999m   63.4981m  747.8613m 
 -449.97475m  111.3746m  699.9999m   63.6395m  747.7350m 
 -449.87475m  111.3898m  699.9999m   63.7810m  747.6087m 
 -449.77475m  111.4049m  699.9999m   63.9224m  747.4825m 
 -449.67475m  111.4201m  699.9999m   64.0638m  747.3562m 
 -449.57475m  111.4353m  699.9999m   64.2052m  747.2300m 
 -449.47475m  111.4505m  699.9999m   64.3466m  747.1038m 
 -449.37475m  111.4657m  699.9999m   64.4881m  746.9776m 
 -449.27475m  111.4810m  699.9999m   64.6295m  746.8514m 
 -449.17475m  111.4962m  699.9999m   64.7709m  746.7252m 
 -449.07475m  111.5114m  699.9999m   64.9123m  746.5990m 
 -448.97475m  111.5267m  699.9999m   65.0537m  746.4729m 
 -448.87475m  111.5420m  699.9999m   65.1952m  746.3467m 
 -448.77475m  111.5573m  699.9999m   65.3366m  746.2206m 
 -448.67475m  111.5726m  699.9999m   65.4780m  746.0945m 
 -448.57475m  111.5879m  699.9999m   65.6194m  745.9684m 
 -448.47475m  111.6032m  699.9999m   65.7608m  745.8423m 
 -448.37475m  111.6185m  699.9999m   65.9023m  745.7162m 
 -448.27475m  111.6339m  699.9999m   66.0437m  745.5901m 
 -448.17475m  111.6492m  699.9999m   66.1851m  745.4640m 
 -448.07475m  111.6646m  699.9999m   66.3265m  745.3380m 
 -447.97475m  111.6800m  699.9999m   66.4679m  745.2120m 
 -447.87475m  111.6954m  699.9999m   66.6094m  745.0859m 
 -447.77475m  111.7108m  699.9999m   66.7508m  744.9599m 
 -447.67475m  111.7262m  699.9999m   66.8922m  744.8339m 
 -447.57475m  111.7416m  699.9999m   67.0336m  744.7079m 
 -447.47475m  111.7571m  699.9999m   67.1751m  744.5819m 
 -447.37475m  111.7725m  699.9999m   67.3165m  744.4560m 
 -447.27475m  111.7880m  699.9999m   67.4579m  744.3300m 
 -447.17475m  111.8035m  699.9999m   67.5993m  744.2041m 
 -447.07475m  111.8189m  699.9999m   67.7407m  744.0781m 
 -446.97475m  111.8344m  699.9999m   67.8822m  743.9522m 
 -446.87475m  111.8500m  699.9999m   68.0236m  743.8263m 
 -446.77475m  111.8655m  699.9999m   68.1650m  743.7004m 
 -446.67475m  111.8810m  699.9999m   68.3064m  743.5745m 
 -446.57475m  111.8966m  699.9999m   68.4478m  743.4486m 
 -446.47475m  111.9121m  699.9999m   68.5893m  743.3228m 
 -446.37475m  111.9277m  699.9999m   68.7307m  743.1969m 
 -446.27475m  111.9433m  699.9999m   68.8721m  743.0711m 
 -446.17475m  111.9589m  699.9999m   69.0135m  742.9452m 
 -446.07475m  111.9745m  699.9999m   69.1549m  742.8194m 
 -445.97475m  111.9901m  699.9999m   69.2964m  742.6936m 
 -445.87475m  112.0057m  699.9999m   69.4378m  742.5678m 
 -445.77475m  112.0214m  699.9999m   69.5792m  742.4420m 
 -445.67475m  112.0370m  699.9999m   69.7206m  742.3163m 
 -445.57475m  112.0527m  699.9999m   69.8621m  742.1905m 
 -445.47475m  112.0683m  699.9999m   70.0035m  742.0648m 
 -445.37475m  112.0840m  699.9999m   70.1449m  741.9390m 
 -445.27475m  112.0997m  699.9999m   70.2863m  741.8133m 
 -445.17475m  112.1155m  699.9999m   70.4277m  741.6876m 
 -445.07475m  112.1312m  699.9999m   70.5692m  741.5619m 
 -444.97475m  112.1469m  699.9999m   70.7106m  741.4362m 
 -444.87475m  112.1627m  699.9999m   70.8520m  741.3106m 
 -444.77475m  112.1784m  699.9999m   70.9934m  741.1849m 
 -444.67475m  112.1942m  699.9999m   71.1348m  741.0593m 
 -444.57475m  112.2100m  699.9999m   71.2763m  740.9336m 
 -444.47475m  112.2258m  699.9999m   71.4177m  740.8080m 
 -444.37475m  112.2416m  699.9999m   71.5591m  740.6824m 
 -444.27475m  112.2574m  699.9999m   71.7005m  740.5568m 
 -444.17475m  112.2732m  699.9999m   71.8419m  740.4312m 
 -444.07475m  112.2891m  699.9999m   71.9834m  740.3056m 
 -443.97475m  112.3049m  699.9999m   72.1248m  740.1801m 
 -443.87475m  112.3208m  699.9999m   72.2662m  740.0545m 
 -443.77475m  112.3367m  699.9999m   72.4076m  739.9290m 
 -443.67475m  112.3526m  699.9999m   72.5490m  739.8034m 
 -443.57475m  112.3685m  699.9999m   72.6905m  739.6779m 
 -443.47475m  112.3844m  699.9999m   72.8319m  739.5524m 
 -443.37475m  112.4004m  699.9999m   72.9733m  739.4269m 
 -443.27475m  112.4163m  699.9999m   73.1147m  739.3015m 
 -443.17475m  112.4323m  699.9999m   73.2561m  739.1760m 
 -443.07475m  112.4482m  699.9999m   73.3976m  739.0505m 
 -442.97475m  112.4642m  699.9999m   73.5390m  738.9251m 
 -442.87475m  112.4802m  699.9999m   73.6804m  738.7997m 
 -442.77475m  112.4962m  699.9999m   73.8218m  738.6742m 
 -442.67475m  112.5122m  699.9999m   73.9633m  738.5488m 
 -442.57475m  112.5282m  699.9999m   74.1047m  738.4235m 
 -442.47475m  112.5443m  699.9999m   74.2461m  738.2981m 
 -442.37475m  112.5603m  699.9999m   74.3875m  738.1727m 
 -442.27475m  112.5764m  699.9999m   74.5289m  738.0474m 
 -442.17475m  112.5925m  699.9999m   74.6704m  737.9220m 
 -442.07475m  112.6086m  699.9999m   74.8118m  737.7967m 
 -441.97475m  112.6247m  699.9999m   74.9532m  737.6714m 
 -441.87475m  112.6408m  699.9999m   75.0946m  737.5461m 
 -441.77475m  112.6569m  699.9999m   75.2360m  737.4208m 
 -441.67475m  112.6731m  699.9999m   75.3775m  737.2955m 
 -441.57475m  112.6892m  699.9999m   75.5189m  737.1702m 
 -441.47475m  112.7054m  699.9999m   75.6603m  737.0450m 
 -441.37475m  112.7216m  699.9999m   75.8017m  736.9197m 
 -441.27475m  112.7377m  699.9999m   75.9431m  736.7945m 
 -441.17475m  112.7540m  699.9999m   76.0846m  736.6693m 
 -441.07475m  112.7702m  699.9999m   76.2260m  736.5441m 
 -440.97475m  112.7864m  699.9999m   76.3674m  736.4189m 
 -440.87475m  112.8026m  699.9999m   76.5088m  736.2937m 
 -440.77475m  112.8189m  699.9999m   76.6502m  736.1685m 
 -440.67475m  112.8352m  699.9999m   76.7917m  736.0434m 
 -440.57475m  112.8514m  699.9999m   76.9331m  735.9182m 
 -440.47475m  112.8677m  699.9999m   77.0745m  735.7931m 
 -440.37475m  112.8840m  699.9999m   77.2159m  735.6680m 
 -440.27475m  112.9003m  699.9999m   77.3573m  735.5429m 
 -440.17475m  112.9167m  699.9999m   77.4988m  735.4178m 
 -440.07475m  112.9330m  699.9999m   77.6402m  735.2927m 
 -439.97475m  112.9494m  699.9999m   77.7816m  735.1676m 
 -439.87475m  112.9657m  699.9999m   77.9230m  735.0426m 
 -439.77475m  112.9821m  699.9999m   78.0645m  734.9175m 
 -439.67475m  112.9985m  699.9999m   78.2059m  734.7925m 
 -439.57475m  113.0149m  699.9999m   78.3473m  734.6675m 
 -439.47475m  113.0313m  699.9999m   78.4887m  734.5425m 
 -439.37475m  113.0477m  699.9999m   78.6301m  734.4175m 
 -439.27475m  113.0642m  699.9999m   78.7716m  734.2925m 
 -439.17475m  113.0806m  699.9999m   78.9130m  734.1675m 
 -439.07475m  113.0971m  699.9999m   79.0544m  734.0426m 
 -438.97475m  113.1136m  699.9999m   79.1958m  733.9176m 
 -438.87475m  113.1301m  699.9999m   79.3372m  733.7927m 
 -438.77475m  113.1466m  699.9999m   79.4787m  733.6678m 
 -438.67475m  113.1631m  699.9999m   79.6201m  733.5429m 
 -438.57475m  113.1796m  699.9999m   79.7615m  733.4180m 
 -438.47475m  113.1962m  699.9999m   79.9029m  733.2931m 
 -438.37475m  113.2127m  699.9999m   80.0443m  733.1682m 
 -438.27475m  113.2293m  699.9998m   80.1858m  733.0434m 
 -438.17475m  113.2459m  699.9998m   80.3272m  732.9186m 
 -438.07475m  113.2625m  699.9998m   80.4686m  732.7937m 
 -437.97475m  113.2791m  699.9998m   80.6100m  732.6689m 
 -437.87475m  113.2957m  699.9998m   80.7514m  732.5441m 
 -437.77475m  113.3123m  699.9998m   80.8929m  732.4193m 
 -437.67475m  113.3290m  699.9998m   81.0343m  732.2945m 
 -437.57475m  113.3456m  699.9998m   81.1757m  732.1698m 
 -437.47475m  113.3623m  699.9998m   81.3171m  732.0450m 
 -437.37475m  113.3790m  699.9998m   81.4585m  731.9203m 
 -437.27475m  113.3957m  699.9998m   81.6000m  731.7956m 
 -437.17475m  113.4124m  699.9998m   81.7414m  731.6709m 
 -437.07475m  113.4291m  699.9998m   81.8828m  731.5462m 
 -436.97475m  113.4459m  699.9998m   82.0242m  731.4215m 
 -436.87475m  113.4626m  699.9998m   82.1656m  731.2968m 
 -436.77475m  113.4794m  699.9998m   82.3071m  731.1721m 
 -436.67475m  113.4962m  699.9998m   82.4485m  731.0475m 
 -436.57475m  113.5129m  699.9998m   82.5899m  730.9229m 
 -436.47475m  113.5297m  699.9998m   82.7313m  730.7982m 
 -436.37475m  113.5466m  699.9998m   82.8727m  730.6736m 
 -436.27475m  113.5634m  699.9998m   83.0142m  730.5490m 
 -436.17475m  113.5802m  699.9998m   83.1556m  730.4245m 
 -436.07475m  113.5971m  699.9998m   83.2970m  730.2999m 
 -435.97475m  113.6139m  699.9998m   83.4384m  730.1753m 
 -435.87475m  113.6308m  699.9998m   83.5798m  730.0508m 
 -435.77475m  113.6477m  699.9998m   83.7213m  729.9263m 
 -435.67475m  113.6646m  699.9998m   83.8627m  729.8018m 
 -435.57475m  113.6815m  699.9998m   84.0041m  729.6773m 
 -435.47475m  113.6985m  699.9998m   84.1455m  729.5528m 
 -435.37475m  113.7154m  699.9998m   84.2870m  729.4283m 
 -435.27475m  113.7324m  699.9998m   84.4284m  729.3038m 
 -435.17475m  113.7493m  699.9998m   84.5698m  729.1794m 
 -435.07475m  113.7663m  699.9998m   84.7112m  729.0549m 
 -434.97475m  113.7833m  699.9998m   84.8526m  728.9305m 
 -434.87475m  113.8003m  699.9998m   84.9941m  728.8061m 
 -434.77475m  113.8174m  699.9998m   85.1355m  728.6817m 
 -434.67475m  113.8344m  699.9998m   85.2769m  728.5573m 
 -434.57475m  113.8514m  699.9998m   85.4183m  728.4329m 
 -434.47475m  113.8685m  699.9998m   85.5597m  728.3086m 
 -434.37475m  113.8856m  699.9998m   85.7012m  728.1842m 
 -434.27475m  113.9027m  699.9998m   85.8426m  728.0599m 
 -434.17475m  113.9198m  699.9998m   85.9840m  727.9356m 
 -434.07475m  113.9369m  699.9998m   86.1254m  727.8113m 
 -433.97475m  113.9540m  699.9998m   86.2668m  727.6870m 
 -433.87475m  113.9712m  699.9998m   86.4083m  727.5627m 
 -433.77475m  113.9883m  699.9998m   86.5497m  727.4385m 
 -433.67475m  114.0055m  699.9998m   86.6911m  727.3142m 
 -433.57475m  114.0227m  699.9998m   86.8325m  727.1900m 
 -433.47475m  114.0399m  699.9998m   86.9739m  727.0657m 
 -433.37475m  114.0571m  699.9998m   87.1154m  726.9415m 
 -433.27475m  114.0743m  699.9998m   87.2568m  726.8173m 
 -433.17475m  114.0915m  699.9998m   87.3982m  726.6931m 
 -433.07475m  114.1088m  699.9998m   87.5396m  726.5690m 
 -432.97475m  114.1261m  699.9998m   87.6810m  726.4448m 
 -432.87475m  114.1433m  699.9998m   87.8225m  726.3207m 
 -432.77475m  114.1606m  699.9998m   87.9639m  726.1965m 
 -432.67475m  114.1779m  699.9998m   88.1053m  726.0724m 
 -432.57475m  114.1953m  699.9998m   88.2467m  725.9483m 
 -432.47475m  114.2126m  699.9998m   88.3881m  725.8242m 
 -432.37475m  114.2299m  699.9998m   88.5296m  725.7002m 
 -432.27475m  114.2473m  699.9998m   88.6710m  725.5761m 
 -432.17475m  114.2647m  699.9998m   88.8124m  725.4520m 
 -432.07475m  114.2820m  699.9998m   88.9538m  725.3280m 
 -431.97475m  114.2994m  699.9998m   89.0952m  725.2040m 
 -431.87475m  114.3168m  699.9998m   89.2367m  725.0800m 
 -431.77475m  114.3343m  699.9998m   89.3781m  724.9560m 
 -431.67475m  114.3517m  699.9998m   89.5195m  724.8320m 
 -431.57475m  114.3692m  699.9998m   89.6609m  724.7080m 
 -431.47475m  114.3866m  699.9998m   89.8023m  724.5841m 
 -431.37475m  114.4041m  699.9998m   89.9438m  724.4601m 
 -431.27475m  114.4216m  699.9998m   90.0852m  724.3362m 
 -431.17475m  114.4391m  699.9998m   90.2266m  724.2123m 
 -431.07475m  114.4566m  699.9998m   90.3680m  724.0884m 
 -430.97475m  114.4742m  699.9998m   90.5094m  723.9645m 
 -430.87475m  114.4917m  699.9998m   90.6509m  723.8406m 
 -430.77475m  114.5093m  699.9998m   90.7923m  723.7168m 
 -430.67475m  114.5269m  699.9998m   90.9337m  723.5929m 
 -430.57475m  114.5444m  699.9998m   91.0751m  723.4691m 
 -430.47475m  114.5620m  699.9998m   91.2165m  723.3453m 
 -430.37475m  114.5797m  699.9998m   91.3580m  723.2215m 
 -430.27475m  114.5973m  699.9998m   91.4994m  723.0977m 
 -430.17475m  114.6149m  699.9998m   91.6408m  722.9739m 
 -430.07475m  114.6326m  699.9998m   91.7822m  722.8501m 
 -429.97475m  114.6503m  699.9998m   91.9236m  722.7264m 
 -429.87475m  114.6679m  699.9998m   92.0651m  722.6026m 
 -429.77475m  114.6856m  699.9998m   92.2065m  722.4789m 
 -429.67475m  114.7034m  699.9998m   92.3479m  722.3552m 
 -429.57475m  114.7211m  699.9998m   92.4893m  722.2315m 
 -429.47475m  114.7388m  699.9998m   92.6307m  722.1078m 
 -429.37475m  114.7566m  699.9998m   92.7722m  721.9842m 
 -429.27475m  114.7744m  699.9997m   92.9136m  721.8605m 
 -429.17475m  114.7921m  699.9997m   93.0550m  721.7369m 
 -429.07475m  114.8099m  699.9997m   93.1964m  721.6133m 
 -428.97475m  114.8277m  699.9997m   93.3378m  721.4896m 
 -428.87475m  114.8456m  699.9997m   93.4793m  721.3660m 
 -428.77475m  114.8634m  699.9997m   93.6207m  721.2425m 
 -428.67475m  114.8813m  699.9997m   93.7621m  721.1189m 
 -428.57475m  114.8991m  699.9997m   93.9035m  720.9953m 
 -428.47475m  114.9170m  699.9997m   94.0449m  720.8718m 
 -428.37475m  114.9349m  699.9997m   94.1864m  720.7483m 
 -428.27475m  114.9528m  699.9997m   94.3278m  720.6248m 
 -428.17475m  114.9707m  699.9997m   94.4692m  720.5013m 
 -428.07475m  114.9887m  699.9997m   94.6106m  720.3778m 
 -427.97475m  115.0066m  699.9997m   94.7520m  720.2543m 
 -427.87475m  115.0246m  699.9997m   94.8935m  720.1308m 
 -427.77475m  115.0426m  699.9997m   95.0349m  720.0074m 
 -427.67475m  115.0605m  699.9997m   95.1763m  719.8840m 
 -427.57475m  115.0785m  699.9997m   95.3177m  719.7606m 
 -427.47475m  115.0966m  699.9997m   95.4591m  719.6372m 
 -427.37475m  115.1146m  699.9997m   95.6006m  719.5138m 
 -427.27475m  115.1327m  699.9997m   95.7420m  719.3904m 
 -427.17475m  115.1507m  699.9997m   95.8834m  719.2670m 
 -427.07475m  115.1688m  699.9997m   96.0248m  719.1437m 
 -426.97475m  115.1869m  699.9997m   96.1662m  719.0204m 
 -426.87475m  115.2050m  699.9997m   96.3077m  718.8970m 
 -426.77475m  115.2231m  699.9997m   96.4491m  718.7737m 
 -426.67475m  115.2412m  699.9997m   96.5905m  718.6505m 
 -426.57475m  115.2594m  699.9997m   96.7319m  718.5272m 
 -426.47475m  115.2775m  699.9997m   96.8733m  718.4039m 
 -426.37475m  115.2957m  699.9997m   97.0148m  718.2807m 
 -426.27475m  115.3139m  699.9997m   97.1562m  718.1574m 
 -426.17475m  115.3321m  699.9997m   97.2976m  718.0342m 
 -426.07475m  115.3503m  699.9997m   97.4390m  717.9110m 
 -425.97475m  115.3686m  699.9997m   97.5804m  717.7878m 
 -425.87475m  115.3868m  699.9997m   97.7219m  717.6647m 
 -425.77475m  115.4051m  699.9997m   97.8633m  717.5415m 
 -425.67475m  115.4234m  699.9997m   98.0047m  717.4184m 
 -425.57475m  115.4416m  699.9997m   98.1461m  717.2952m 
 -425.47475m  115.4600m  699.9997m   98.2875m  717.1721m 
 -425.37475m  115.4783m  699.9997m   98.4290m  717.0490m 
 -425.27475m  115.4966m  699.9997m   98.5704m  716.9259m 
 -425.17475m  115.5150m  699.9997m   98.7118m  716.8028m 
 -425.07475m  115.5333m  699.9997m   98.8532m  716.6798m 
 -424.97475m  115.5517m  699.9997m   98.9946m  716.5567m 
 -424.87475m  115.5701m  699.9997m   99.1360m  716.4337m 
 -424.77475m  115.5885m  699.9997m   99.2775m  716.3107m 
 -424.67475m  115.6069m  699.9997m   99.4189m  716.1877m 
 -424.57475m  115.6253m  699.9997m   99.5603m  716.0647m 
 -424.47475m  115.6438m  699.9997m   99.7017m  715.9417m 
 -424.37475m  115.6623m  699.9997m   99.8431m  715.8188m 
 -424.27475m  115.6807m  699.9997m   99.9846m  715.6958m 
 -424.17475m  115.6992m  699.9997m  100.1260m  715.5729m 
 -424.07475m  115.7177m  699.9997m  100.2674m  715.4500m 
 -423.97475m  115.7363m  699.9997m  100.4088m  715.3271m 
 -423.87475m  115.7548m  699.9997m  100.5502m  715.2042m 
 -423.77475m  115.7733m  699.9997m  100.6917m  715.0813m 
 -423.67475m  115.7919m  699.9997m  100.8331m  714.9585m 
 -423.57475m  115.8105m  699.9997m  100.9745m  714.8356m 
 -423.47475m  115.8291m  699.9997m  101.1159m  714.7128m 
 -423.37475m  115.8477m  699.9996m  101.2573m  714.5900m 
 -423.27475m  115.8663m  699.9996m  101.3988m  714.4672m 
 -423.17475m  115.8849m  699.9996m  101.5402m  714.3444m 
 -423.07475m  115.9036m  699.9996m  101.6816m  714.2216m 
 -422.97475m  115.9223m  699.9996m  101.8230m  714.0989m 
 -422.87475m  115.9410m  699.9996m  101.9644m  713.9762m 
 -422.77475m  115.9596m  699.9996m  102.1059m  713.8534m 
 -422.67475m  115.9784m  699.9996m  102.2473m  713.7307m 
 -422.57475m  115.9971m  699.9996m  102.3887m  713.6080m 
 -422.47475m  116.0158m  699.9996m  102.5301m  713.4853m 
 -422.37475m  116.0346m  699.9996m  102.6715m  713.3627m 
 -422.27475m  116.0534m  699.9996m  102.8130m  713.2400m 
 -422.17475m  116.0721m  699.9996m  102.9544m  713.1174m 
 -422.07475m  116.0909m  699.9996m  103.0958m  712.9948m 
 -421.97475m  116.1098m  699.9996m  103.2372m  712.8722m 
 -421.87475m  116.1286m  699.9996m  103.3786m  712.7496m 
 -421.77475m  116.1474m  699.9996m  103.5200m  712.6270m 
 -421.67475m  116.1663m  699.9996m  103.6615m  712.5044m 
 -421.57475m  116.1852m  699.9996m  103.8029m  712.3819m 
 -421.47475m  116.2041m  699.9996m  103.9443m  712.2594m 
 -421.37475m  116.2230m  699.9996m  104.0857m  712.1368m 
 -421.27475m  116.2419m  699.9996m  104.2271m  712.0143m 
 -421.17475m  116.2608m  699.9996m  104.3686m  711.8918m 
 -421.07475m  116.2798m  699.9996m  104.5100m  711.7694m 
 -420.97475m  116.2987m  699.9996m  104.6514m  711.6469m 
 -420.87475m  116.3177m  699.9996m  104.7928m  711.5245m 
 -420.77475m  116.3367m  699.9996m  104.9342m  711.4020m 
 -420.67475m  116.3557m  699.9996m  105.0757m  711.2796m 
 -420.57475m  116.3747m  699.9996m  105.2171m  711.1572m 
 -420.47475m  116.3938m  699.9996m  105.3585m  711.0349m 
 -420.37475m  116.4128m  699.9996m  105.4999m  710.9125m 
 -420.27475m  116.4319m  699.9996m  105.6413m  710.7901m 
 -420.17475m  116.4510m  699.9996m  105.7828m  710.6678m 
 -420.07475m  116.4701m  699.9996m  105.9242m  710.5455m 
 -419.97475m  116.4892m  699.9996m  106.0656m  710.4232m 
 -419.87475m  116.5083m  699.9996m  106.2070m  710.3009m 
 -419.77475m  116.5275m  699.9996m  106.3484m  710.1786m 
 -419.67475m  116.5466m  699.9996m  106.4898m  710.0563m 
 -419.57475m  116.5658m  699.9996m  106.6313m  709.9341m 
 -419.47475m  116.5850m  699.9996m  106.7727m  709.8119m 
 -419.37475m  116.6042m  699.9996m  106.9141m  709.6896m 
 -419.27475m  116.6234m  699.9996m  107.0555m  709.5674m 
 -419.17475m  116.6426m  699.9996m  107.1969m  709.4452m 
 -419.07475m  116.6619m  699.9996m  107.3384m  709.3231m 
 -418.97475m  116.6812m  699.9996m  107.4798m  709.2009m 
 -418.87475m  116.7004m  699.9995m  107.6212m  709.0788m 
 -418.77475m  116.7197m  699.9995m  107.7626m  708.9567m 
 -418.67475m  116.7390m  699.9995m  107.9040m  708.8345m 
 -418.57475m  116.7584m  699.9995m  108.0455m  708.7124m 
 -418.47475m  116.7777m  699.9995m  108.1869m  708.5904m 
 -418.37475m  116.7971m  699.9995m  108.3283m  708.4683m 
 -418.27475m  116.8164m  699.9995m  108.4697m  708.3463m 
 -418.17475m  116.8358m  699.9995m  108.6111m  708.2242m 
 -418.07475m  116.8552m  699.9995m  108.7525m  708.1022m 
 -417.97475m  116.8746m  699.9995m  108.8940m  707.9802m 
 -417.87475m  116.8941m  699.9995m  109.0354m  707.8582m 
 -417.77475m  116.9135m  699.9995m  109.1768m  707.7362m 
 -417.67475m  116.9330m  699.9995m  109.3182m  707.6143m 
 -417.57475m  116.9525m  699.9995m  109.4596m  707.4923m 
 -417.47475m  116.9720m  699.9995m  109.6011m  707.3704m 
 -417.37475m  116.9915m  699.9995m  109.7425m  707.2485m 
 -417.27475m  117.0110m  699.9995m  109.8839m  707.1266m 
 -417.17475m  117.0305m  699.9995m  110.0253m  707.0047m 
 -417.07475m  117.0501m  699.9995m  110.1667m  706.8829m 
 -416.97475m  117.0697m  699.9995m  110.3082m  706.7610m 
 -416.87475m  117.0893m  699.9995m  110.4496m  706.6392m 
 -416.77475m  117.1089m  699.9995m  110.5910m  706.5174m 
 -416.67475m  117.1285m  699.9995m  110.7324m  706.3956m 
 -416.57475m  117.1481m  699.9995m  110.8738m  706.2738m 
 -416.47475m  117.1678m  699.9995m  111.0152m  706.1520m 
 -416.37475m  117.1874m  699.9995m  111.1567m  706.0302m 
 -416.27475m  117.2071m  699.9995m  111.2981m  705.9085m 
 -416.17475m  117.2268m  699.9995m  111.4395m  705.7868m 
 -416.07475m  117.2465m  699.9995m  111.5809m  705.6651m 
 -415.97475m  117.2662m  699.9995m  111.7223m  705.5434m 
 -415.87475m  117.2860m  699.9995m  111.8638m  705.4217m 
 -415.77475m  117.3057m  699.9995m  112.0052m  705.3000m 
 -415.67475m  117.3255m  699.9995m  112.1466m  705.1784m 
 -415.57475m  117.3453m  699.9995m  112.2880m  705.0568m 
 -415.47475m  117.3651m  699.9995m  112.4294m  704.9351m 
 -415.37475m  117.3849m  699.9994m  112.5708m  704.8135m 
 -415.27475m  117.4048m  699.9994m  112.7123m  704.6920m 
 -415.17475m  117.4246m  699.9994m  112.8537m  704.5704m 
 -415.07475m  117.4445m  699.9994m  112.9951m  704.4488m 
 -414.97475m  117.4644m  699.9994m  113.1365m  704.3273m 
 -414.87475m  117.4843m  699.9994m  113.2779m  704.2058m 
 -414.77475m  117.5042m  699.9994m  113.4194m  704.0843m 
 -414.67475m  117.5241m  699.9994m  113.5608m  703.9628m 
 -414.57475m  117.5441m  699.9994m  113.7022m  703.8413m 
 -414.47475m  117.5640m  699.9994m  113.8436m  703.7198m 
 -414.37475m  117.5840m  699.9994m  113.9850m  703.5984m 
 -414.27475m  117.6040m  699.9994m  114.1264m  703.4770m 
 -414.17475m  117.6240m  699.9994m  114.2679m  703.3556m 
 -414.07475m  117.6441m  699.9994m  114.4093m  703.2342m 
 -413.97475m  117.6641m  699.9994m  114.5507m  703.1128m 
 -413.87475m  117.6842m  699.9994m  114.6921m  702.9914m 
 -413.77475m  117.7042m  699.9994m  114.8335m  702.8701m 
 -413.67475m  117.7243m  699.9994m  114.9750m  702.7488m 
 -413.57475m  117.7444m  699.9994m  115.1164m  702.6274m 
 -413.47475m  117.7645m  699.9994m  115.2578m  702.5061m 
 -413.37475m  117.7847m  699.9994m  115.3992m  702.3849m 
 -413.27475m  117.8048m  699.9994m  115.5406m  702.2636m 
 -413.17475m  117.8250m  699.9994m  115.6820m  702.1423m 
 -413.07475m  117.8452m  699.9994m  115.8235m  702.0211m 
 -412.97475m  117.8654m  699.9994m  115.9649m  701.8999m 
 -412.87475m  117.8856m  699.9994m  116.1063m  701.7787m 
 -412.77475m  117.9059m  699.9994m  116.2477m  701.6575m 
 -412.67475m  117.9261m  699.9994m  116.3891m  701.5363m 
 -412.57475m  117.9464m  699.9994m  116.5305m  701.4152m 
 -412.47475m  117.9667m  699.9993m  116.6720m  701.2940m 
 -412.37475m  117.9869m  699.9993m  116.8134m  701.1729m 
 -412.27475m  118.0073m  699.9993m  116.9548m  701.0518m 
 -412.17475m  118.0276m  699.9993m  117.0962m  700.9307m 
 -412.07475m  118.0479m  699.9993m  117.2376m  700.8096m 
 -411.97475m  118.0683m  699.9993m  117.3791m  700.6886m 
 -411.87475m  118.0887m  699.9993m  117.5205m  700.5675m 
 -411.77475m  118.1091m  699.9993m  117.6619m  700.4465m 
 -411.67475m  118.1295m  699.9993m  117.8033m  700.3255m 
 -411.57475m  118.1499m  699.9993m  117.9447m  700.2045m 
 -411.47475m  118.1704m  699.9993m  118.0861m  700.0835m 
 -411.37475m  118.1908m  699.9993m  118.2276m  699.9626m 
 -411.27475m  118.2113m  699.9993m  118.3690m  699.8416m 
 -411.17475m  118.2318m  699.9993m  118.5104m  699.7207m 
 -411.07475m  118.2523m  699.9993m  118.6518m  699.5998m 
 -410.97475m  118.2728m  699.9993m  118.7932m  699.4789m 
 -410.87475m  118.2934m  699.9993m  118.9346m  699.3580m 
 -410.77475m  118.3139m  699.9993m  119.0761m  699.2372m 
 -410.67475m  118.3345m  699.9993m  119.2175m  699.1163m 
 -410.57475m  118.3551m  699.9993m  119.3589m  698.9955m 
 -410.47475m  118.3757m  699.9993m  119.5003m  698.8747m 
 -410.37475m  118.3963m  699.9993m  119.6417m  698.7539m 
 -410.27475m  118.4170m  699.9993m  119.7831m  698.6331m 
 -410.17475m  118.4376m  699.9993m  119.9246m  698.5123m 
 -410.07475m  118.4583m  699.9993m  120.0660m  698.3916m 
 -409.97475m  118.4790m  699.9992m  120.2074m  698.2708m 
 -409.87475m  118.4997m  699.9992m  120.3488m  698.1501m 
 -409.77475m  118.5204m  699.9992m  120.4902m  698.0294m 
 -409.67475m  118.5412m  699.9992m  120.6316m  697.9087m 
 -409.57475m  118.5619m  699.9992m  120.7731m  697.7881m 
 -409.47475m  118.5827m  699.9992m  120.9145m  697.6674m 
 -409.37475m  118.6035m  699.9992m  121.0559m  697.5468m 
 -409.27475m  118.6243m  699.9992m  121.1973m  697.4262m 
 -409.17475m  118.6451m  699.9992m  121.3387m  697.3056m 
 -409.07475m  118.6659m  699.9992m  121.4802m  697.1850m 
 -408.97475m  118.6868m  699.9992m  121.6216m  697.0644m 
 -408.87475m  118.7077m  699.9992m  121.7630m  696.9439m 
 -408.77475m  118.7286m  699.9992m  121.9044m  696.8233m 
 -408.67475m  118.7495m  699.9992m  122.0458m  696.7028m 
 -408.57475m  118.7704m  699.9992m  122.1872m  696.5823m 
 -408.47475m  118.7913m  699.9992m  122.3287m  696.4618m 
 -408.37475m  118.8123m  699.9992m  122.4701m  696.3414m 
 -408.27475m  118.8332m  699.9992m  122.6115m  696.2209m 
 -408.17475m  118.8542m  699.9992m  122.7529m  696.1005m 
 -408.07475m  118.8752m  699.9992m  122.8943m  695.9801m 
 -407.97475m  118.8963m  699.9992m  123.0357m  695.8597m 
 -407.87475m  118.9173m  699.9991m  123.1772m  695.7393m 
 -407.77475m  118.9384m  699.9991m  123.3186m  695.6189m 
 -407.67475m  118.9594m  699.9991m  123.4600m  695.4986m 
 -407.57475m  118.9805m  699.9991m  123.6014m  695.3783m 
 -407.47475m  119.0016m  699.9991m  123.7428m  695.2579m 
 -407.37475m  119.0227m  699.9991m  123.8842m  695.1376m 
 -407.27475m  119.0439m  699.9991m  124.0256m  695.0174m 
 -407.17475m  119.0650m  699.9991m  124.1671m  694.8971m 
 -407.07475m  119.0862m  699.9991m  124.3085m  694.7768m 
 -406.97475m  119.1074m  699.9991m  124.4499m  694.6566m 
 -406.87475m  119.1286m  699.9991m  124.5913m  694.5364m 
 -406.77475m  119.1498m  699.9991m  124.7327m  694.4162m 
 -406.67475m  119.1711m  699.9991m  124.8741m  694.2960m 
 -406.57475m  119.1923m  699.9991m  125.0156m  694.1759m 
 -406.47475m  119.2136m  699.9991m  125.1570m  694.0557m 
 -406.37475m  119.2349m  699.9991m  125.2984m  693.9356m 
 -406.27475m  119.2562m  699.9991m  125.4398m  693.8155m 
 -406.17475m  119.2775m  699.9991m  125.5812m  693.6954m 
 -406.07475m  119.2989m  699.9991m  125.7226m  693.5753m 
 -405.97475m  119.3202m  699.9991m  125.8641m  693.4552m 
 -405.87475m  119.3416m  699.9990m  126.0055m  693.3352m 
 -405.77475m  119.3630m  699.9990m  126.1469m  693.2152m 
 -405.67475m  119.3844m  699.9990m  126.2883m  693.0951m 
 -405.57475m  119.4058m  699.9990m  126.4297m  692.9752m 
 -405.47475m  119.4273m  699.9990m  126.5711m  692.8552m 
 -405.37475m  119.4488m  699.9990m  126.7126m  692.7352m 
 -405.27475m  119.4702m  699.9990m  126.8540m  692.6153m 
 -405.17475m  119.4917m  699.9990m  126.9954m  692.4954m 
 -405.07475m  119.5132m  699.9990m  127.1368m  692.3754m 
 -404.97475m  119.5348m  699.9990m  127.2782m  692.2556m 
 -404.87475m  119.5563m  699.9990m  127.4196m  692.1357m 
 -404.77475m  119.5779m  699.9990m  127.5610m  692.0158m 
 -404.67475m  119.5995m  699.9990m  127.7025m  691.8960m 
 -404.57475m  119.6211m  699.9990m  127.8439m  691.7762m 
 -404.47475m  119.6427m  699.9990m  127.9853m  691.6564m 
 -404.37475m  119.6643m  699.9990m  128.1267m  691.5366m 
 -404.27475m  119.6860m  699.9990m  128.2681m  691.4168m 
 -404.17475m  119.7076m  699.9989m  128.4095m  691.2970m 
 -404.07475m  119.7293m  699.9989m  128.5510m  691.1773m 
 -403.97475m  119.7510m  699.9989m  128.6924m  691.0576m 
 -403.87475m  119.7728m  699.9989m  128.8338m  690.9379m 
 -403.77475m  119.7945m  699.9989m  128.9752m  690.8182m 
 -403.67475m  119.8162m  699.9989m  129.1166m  690.6985m 
 -403.57475m  119.8380m  699.9989m  129.2580m  690.5789m 
 -403.47475m  119.8598m  699.9989m  129.3994m  690.4593m 
 -403.37475m  119.8816m  699.9989m  129.5409m  690.3397m 
 -403.27475m  119.9034m  699.9989m  129.6823m  690.2201m 
 -403.17475m  119.9253m  699.9989m  129.8237m  690.1005m 
 -403.07475m  119.9471m  699.9989m  129.9651m  689.9809m 
 -402.97475m  119.9690m  699.9989m  130.1065m  689.8614m 
 -402.87475m  119.9909m  699.9989m  130.2479m  689.7418m 
 -402.77475m  120.0128m  699.9989m  130.3893m  689.6223m 
 -402.67475m  120.0348m  699.9989m  130.5308m  689.5028m 
 -402.57475m  120.0567m  699.9988m  130.6722m  689.3834m 
 -402.47475m  120.0787m  699.9988m  130.8136m  689.2639m 
 -402.37475m  120.1007m  699.9988m  130.9550m  689.1445m 
 -402.27475m  120.1227m  699.9988m  131.0964m  689.0251m 
 -402.17475m  120.1447m  699.9988m  131.2378m  688.9057m 
 -402.07475m  120.1667m  699.9988m  131.3793m  688.7863m 
 -401.97475m  120.1888m  699.9988m  131.5207m  688.6669m 
 -401.87475m  120.2108m  699.9988m  131.6621m  688.5475m 
 -401.77475m  120.2329m  699.9988m  131.8035m  688.4282m 
 -401.67475m  120.2550m  699.9988m  131.9449m  688.3089m 
 -401.57475m  120.2772m  699.9988m  132.0863m  688.1896m 
 -401.47475m  120.2993m  699.9988m  132.2277m  688.0703m 
 -401.37475m  120.3215m  699.9988m  132.3692m  687.9511m 
 -401.27475m  120.3436m  699.9988m  132.5106m  687.8318m 
 -401.17475m  120.3658m  699.9987m  132.6520m  687.7126m 
 -401.07475m  120.3880m  699.9987m  132.7934m  687.5934m 
 -400.97475m  120.4103m  699.9987m  132.9348m  687.4742m 
 -400.87475m  120.4325m  699.9987m  133.0762m  687.3550m 
 -400.77475m  120.4548m  699.9987m  133.2176m  687.2359m 
 -400.67475m  120.4771m  699.9987m  133.3590m  687.1167m 
 -400.57475m  120.4994m  699.9987m  133.5005m  686.9976m 
 -400.47475m  120.5217m  699.9987m  133.6419m  686.8785m 
 -400.37475m  120.5440m  699.9987m  133.7833m  686.7594m 
 -400.27475m  120.5664m  699.9987m  133.9247m  686.6404m 
 -400.17475m  120.5888m  699.9987m  134.0661m  686.5213m 
 -400.07475m  120.6111m  699.9987m  134.2075m  686.4023m 
 -399.97475m  120.6336m  699.9987m  134.3489m  686.2833m 
 -399.87475m  120.6560m  699.9986m  134.4904m  686.1643m 
 -399.77475m  120.6784m  699.9986m  134.6318m  686.0453m 
 -399.67475m  120.7009m  699.9986m  134.7732m  685.9263m 
 -399.57475m  120.7234m  699.9986m  134.9146m  685.8074m 
 -399.47475m  120.7459m  699.9986m  135.0560m  685.6885m 
 -399.37475m  120.7684m  699.9986m  135.1974m  685.5696m 
 -399.27475m  120.7909m  699.9986m  135.3388m  685.4507m 
 -399.17475m  120.8135m  699.9986m  135.4803m  685.3318m 
 -399.07475m  120.8360m  699.9986m  135.6217m  685.2130m 
 -398.97475m  120.8586m  699.9986m  135.7631m  685.0941m 
 -398.87475m  120.8812m  699.9986m  135.9045m  684.9753m 
 -398.77475m  120.9039m  699.9986m  136.0459m  684.8565m 
 -398.67475m  120.9265m  699.9986m  136.1873m  684.7377m 
 -398.57475m  120.9492m  699.9985m  136.3287m  684.6190m 
 -398.47475m  120.9718m  699.9985m  136.4701m  684.5002m 
 -398.37475m  120.9945m  699.9985m  136.6116m  684.3815m 
 -398.27475m  121.0173m  699.9985m  136.7530m  684.2628m 
 -398.17475m  121.0400m  699.9985m  136.8944m  684.1441m 
 -398.07475m  121.0627m  699.9985m  137.0358m  684.0255m 
 -397.97475m  121.0855m  699.9985m  137.1772m  683.9068m 
 -397.87475m  121.1083m  699.9985m  137.3186m  683.7882m 
 -397.77475m  121.1311m  699.9985m  137.4600m  683.6696m 
 -397.67475m  121.1539m  699.9985m  137.6014m  683.5510m 
 -397.57475m  121.1768m  699.9985m  137.7429m  683.4324m 
 -397.47475m  121.1996m  699.9984m  137.8843m  683.3138m 
 -397.37475m  121.2225m  699.9984m  138.0257m  683.1953m 
 -397.27475m  121.2454m  699.9984m  138.1671m  683.0768m 
 -397.17475m  121.2683m  699.9984m  138.3085m  682.9583m 
 -397.07475m  121.2913m  699.9984m  138.4499m  682.8398m 
 -396.97475m  121.3142m  699.9984m  138.5913m  682.7213m 
 -396.87475m  121.3372m  699.9984m  138.7327m  682.6029m 
 -396.77475m  121.3602m  699.9984m  138.8742m  682.4844m 
 -396.67475m  121.3832m  699.9984m  139.0156m  682.3660m 
 -396.57475m  121.4062m  699.9984m  139.1570m  682.2476m 
 -396.47475m  121.4293m  699.9984m  139.2984m  682.1292m 
 -396.37475m  121.4523m  699.9983m  139.4398m  682.0109m 
 -396.27475m  121.4754m  699.9983m  139.5812m  681.8925m 
 -396.17475m  121.4985m  699.9983m  139.7226m  681.7742m 
 -396.07475m  121.5216m  699.9983m  139.8640m  681.6559m 
 -395.97475m  121.5448m  699.9983m  140.0054m  681.5376m 
 -395.87475m  121.5679m  699.9983m  140.1469m  681.4194m 
 -395.77475m  121.5911m  699.9983m  140.2883m  681.3011m 
 -395.67475m  121.6143m  699.9983m  140.4297m  681.1829m 
 -395.57475m  121.6375m  699.9983m  140.5711m  681.0647m 
 -395.47475m  121.6608m  699.9983m  140.7125m  680.9465m 
 -395.37475m  121.6840m  699.9982m  140.8539m  680.8283m 
 -395.27475m  121.7073m  699.9982m  140.9953m  680.7102m 
 -395.17475m  121.7306m  699.9982m  141.1367m  680.5920m 
 -395.07475m  121.7539m  699.9982m  141.2781m  680.4739m 
 -394.97475m  121.7772m  699.9982m  141.4196m  680.3558m 
 -394.87475m  121.8005m  699.9982m  141.5610m  680.2378m 
 -394.77475m  121.8239m  699.9982m  141.7024m  680.1197m 
 -394.67475m  121.8473m  699.9982m  141.8438m  680.0017m 
 -394.57475m  121.8707m  699.9982m  141.9852m  679.8836m 
 -394.47475m  121.8941m  699.9982m  142.1266m  679.7656m 
 -394.37475m  121.9175m  699.9981m  142.2680m  679.6477m 
 -394.27475m  121.9410m  699.9981m  142.4094m  679.5297m 
 -394.17475m  121.9645m  699.9981m  142.5508m  679.4117m 
 -394.07475m  121.9880m  699.9981m  142.6923m  679.2938m 
 -393.97475m  122.0115m  699.9981m  142.8337m  679.1759m 
 -393.87475m  122.0350m  699.9981m  142.9751m  679.0580m 
 -393.77475m  122.0586m  699.9981m  143.1165m  678.9401m 
 -393.67475m  122.0821m  699.9981m  143.2579m  678.8223m 
 -393.57475m  122.1057m  699.9981m  143.3993m  678.7045m 
 -393.47475m  122.1293m  699.9980m  143.5407m  678.5866m 
 -393.37475m  122.1529m  699.9980m  143.6821m  678.4688m 
 -393.27475m  122.1766m  699.9980m  143.8235m  678.3511m 
 -393.17475m  122.2003m  699.9980m  143.9649m  678.2333m 
 -393.07475m  122.2239m  699.9980m  144.1064m  678.1156m 
 -392.97475m  122.2476m  699.9980m  144.2478m  677.9979m 
 -392.87475m  122.2714m  699.9980m  144.3892m  677.8802m 
 -392.77475m  122.2951m  699.9980m  144.5306m  677.7625m 
 -392.67475m  122.3189m  699.9979m  144.6720m  677.6448m 
 -392.57475m  122.3426m  699.9979m  144.8134m  677.5272m 
 -392.47475m  122.3664m  699.9979m  144.9548m  677.4095m 
 -392.37475m  122.3903m  699.9979m  145.0962m  677.2919m 
 -392.27475m  122.4141m  699.9979m  145.2376m  677.1744m 
 -392.17475m  122.4379m  699.9979m  145.3790m  677.0568m 
 -392.07475m  122.4618m  699.9979m  145.5204m  676.9392m 
 -391.97475m  122.4857m  699.9979m  145.6619m  676.8217m 
 -391.87475m  122.5096m  699.9978m  145.8033m  676.7042m 
 -391.77475m  122.5336m  699.9978m  145.9447m  676.5867m 
 -391.67475m  122.5575m  699.9978m  146.0861m  676.4692m 
 -391.57475m  122.5815m  699.9978m  146.2275m  676.3518m 
 -391.47475m  122.6055m  699.9978m  146.3689m  676.2344m 
 -391.37475m  122.6295m  699.9978m  146.5103m  676.1169m 
 -391.27475m  122.6535m  699.9978m  146.6517m  675.9996m 
 -391.17475m  122.6775m  699.9978m  146.7931m  675.8822m 
 -391.07475m  122.7016m  699.9977m  146.9345m  675.7648m 
 -390.97475m  122.7257m  699.9977m  147.0759m  675.6475m 
 -390.87475m  122.7498m  699.9977m  147.2174m  675.5302m 
 -390.77475m  122.7739m  699.9977m  147.3588m  675.4129m 
 -390.67475m  122.7981m  699.9977m  147.5002m  675.2956m 
 -390.57475m  122.8222m  699.9977m  147.6416m  675.1783m 
 -390.47475m  122.8464m  699.9977m  147.7830m  675.0611m 
 -390.37475m  122.8706m  699.9977m  147.9244m  674.9439m 
 -390.27475m  122.8948m  699.9976m  148.0658m  674.8267m 
 -390.17475m  122.9191m  699.9976m  148.2072m  674.7095m 
 -390.07475m  122.9433m  699.9976m  148.3486m  674.5923m 
 -389.97475m  122.9676m  699.9976m  148.4900m  674.4752m 
 -389.87475m  122.9919m  699.9976m  148.6314m  674.3581m 
 -389.77475m  123.0162m  699.9976m  148.7728m  674.2410m 
 -389.67475m  123.0406m  699.9976m  148.9142m  674.1239m 
 -389.57475m  123.0649m  699.9975m  149.0556m  674.0068m 
 -389.47475m  123.0893m  699.9975m  149.1971m  673.8898m 
 -389.37475m  123.1137m  699.9975m  149.3385m  673.7728m 
 -389.27475m  123.1381m  699.9975m  149.4799m  673.6557m 
 -389.17475m  123.1626m  699.9975m  149.6213m  673.5388m 
 -389.07475m  123.1870m  699.9975m  149.7627m  673.4218m 
 -388.97475m  123.2115m  699.9975m  149.9041m  673.3049m 
 -388.87475m  123.2360m  699.9974m  150.0455m  673.1879m 
 -388.77475m  123.2605m  699.9974m  150.1869m  673.0710m 
 -388.67475m  123.2850m  699.9974m  150.3283m  672.9541m 
 -388.57475m  123.3096m  699.9974m  150.4697m  672.8373m 
 -388.47475m  123.3342m  699.9974m  150.6111m  672.7204m 
 -388.37475m  123.3588m  699.9974m  150.7525m  672.6036m 
 -388.27475m  123.3834m  699.9973m  150.8939m  672.4868m 
 -388.17475m  123.4080m  699.9973m  151.0353m  672.3700m 
 -388.07475m  123.4327m  699.9973m  151.1767m  672.2532m 
 -387.97475m  123.4573m  699.9973m  151.3182m  672.1365m 
 -387.87475m  123.4820m  699.9973m  151.4596m  672.0197m 
 -387.77475m  123.5067m  699.9973m  151.6010m  671.9030m 
 -387.67475m  123.5315m  699.9973m  151.7424m  671.7863m 
 -387.57475m  123.5562m  699.9972m  151.8838m  671.6697m 
 -387.47475m  123.5810m  699.9972m  152.0252m  671.5530m 
 -387.37475m  123.6058m  699.9972m  152.1666m  671.4364m 
 -387.27475m  123.6306m  699.9972m  152.3080m  671.3198m 
 -387.17475m  123.6554m  699.9972m  152.4494m  671.2032m 
 -387.07475m  123.6803m  699.9972m  152.5908m  671.0866m 
 -386.97475m  123.7051m  699.9971m  152.7322m  670.9701m 
 -386.87475m  123.7300m  699.9971m  152.8736m  670.8535m 
 -386.77475m  123.7549m  699.9971m  153.0150m  670.7370m 
 -386.67475m  123.7799m  699.9971m  153.1564m  670.6205m 
 -386.57475m  123.8048m  699.9971m  153.2978m  670.5041m 
 -386.47475m  123.8298m  699.9971m  153.4392m  670.3876m 
 -386.37475m  123.8548m  699.9970m  153.5806m  670.2712m 
 -386.27475m  123.8798m  699.9970m  153.7220m  670.1548m 
 -386.17475m  123.9048m  699.9970m  153.8634m  670.0384m 
 -386.07475m  123.9299m  699.9970m  154.0048m  669.9220m 
 -385.97475m  123.9550m  699.9970m  154.1462m  669.8057m 
 -385.87475m  123.9800m  699.9969m  154.2876m  669.6894m 
 -385.77475m  124.0052m  699.9969m  154.4290m  669.5730m 
 -385.67475m  124.0303m  699.9969m  154.5705m  669.4568m 
 -385.57475m  124.0554m  699.9969m  154.7119m  669.3405m 
 -385.47475m  124.0806m  699.9969m  154.8533m  669.2242m 
 -385.37475m  124.1058m  699.9969m  154.9947m  669.1080m 
 -385.27475m  124.1310m  699.9968m  155.1361m  668.9918m 
 -385.17475m  124.1563m  699.9968m  155.2775m  668.8756m 
 -385.07475m  124.1815m  699.9968m  155.4189m  668.7594m 
 -384.97475m  124.2068m  699.9968m  155.5603m  668.6433m 
 -384.87475m  124.2321m  699.9968m  155.7017m  668.5272m 
 -384.77475m  124.2574m  699.9967m  155.8431m  668.4111m 
 -384.67475m  124.2827m  699.9967m  155.9845m  668.2950m 
 -384.57475m  124.3081m  699.9967m  156.1259m  668.1789m 
 -384.47475m  124.3335m  699.9967m  156.2673m  668.0629m 
 -384.37475m  124.3589m  699.9967m  156.4087m  667.9468m 
 -384.27475m  124.3843m  699.9966m  156.5501m  667.8308m 
 -384.17475m  124.4097m  699.9966m  156.6915m  667.7148m 
 -384.07475m  124.4352m  699.9966m  156.8329m  667.5989m 
 -383.97475m  124.4606m  699.9966m  156.9743m  667.4829m 
 -383.87475m  124.4861m  699.9966m  157.1157m  667.3670m 
 -383.77475m  124.5117m  699.9965m  157.2571m  667.2511m 
 -383.67475m  124.5372m  699.9965m  157.3985m  667.1352m 
 -383.57475m  124.5628m  699.9965m  157.5399m  667.0194m 
 -383.47475m  124.5883m  699.9965m  157.6813m  666.9035m 
 -383.37475m  124.6139m  699.9965m  157.8227m  666.7877m 
 -383.27475m  124.6396m  699.9964m  157.9641m  666.6719m 
 -383.17475m  124.6652m  699.9964m  158.1055m  666.5561m 
 -383.07475m  124.6909m  699.9964m  158.2469m  666.4404m 
 -382.97475m  124.7165m  699.9964m  158.3883m  666.3246m 
 -382.87475m  124.7422m  699.9964m  158.5297m  666.2089m 
 -382.77475m  124.7680m  699.9963m  158.6711m  666.0932m 
 -382.67475m  124.7937m  699.9963m  158.8125m  665.9775m 
 -382.57475m  124.8195m  699.9963m  158.9539m  665.8619m 
 -382.47475m  124.8453m  699.9963m  159.0953m  665.7462m 
 -382.37475m  124.8711m  699.9963m  159.2367m  665.6306m 
 -382.27475m  124.8969m  699.9962m  159.3781m  665.5150m 
 -382.17475m  124.9228m  699.9962m  159.5195m  665.3995m 
 -382.07475m  124.9486m  699.9962m  159.6609m  665.2839m 
 -381.97475m  124.9745m  699.9962m  159.8023m  665.1684m 
 -381.87475m  125.0004m  699.9961m  159.9437m  665.0529m 
 -381.77475m  125.0264m  699.9961m  160.0851m  664.9374m 
 -381.67475m  125.0523m  699.9961m  160.2265m  664.8219m 
 -381.57475m  125.0783m  699.9961m  160.3679m  664.7065m 
 -381.47475m  125.1043m  699.9960m  160.5093m  664.5910m 
 -381.37475m  125.1303m  699.9960m  160.6507m  664.4756m 
 -381.27475m  125.1563m  699.9960m  160.7921m  664.3602m 
 -381.17475m  125.1824m  699.9960m  160.9335m  664.2449m 
 -381.07475m  125.2085m  699.9960m  161.0749m  664.1295m 
 -380.97475m  125.2346m  699.9959m  161.2163m  664.0142m 
 -380.87475m  125.2607m  699.9959m  161.3577m  663.8989m 
 -380.77475m  125.2868m  699.9959m  161.4991m  663.7836m 
 -380.67475m  125.3130m  699.9959m  161.6405m  663.6684m 
 -380.57475m  125.3392m  699.9958m  161.7819m  663.5531m 
 -380.47475m  125.3654m  699.9958m  161.9233m  663.4379m 
 -380.37475m  125.3916m  699.9958m  162.0647m  663.3227m 
 -380.27475m  125.4178m  699.9958m  162.2061m  663.2075m 
 -380.17475m  125.4441m  699.9957m  162.3475m  663.0924m 
 -380.07475m  125.4704m  699.9957m  162.4888m  662.9772m 
 -379.97475m  125.4967m  699.9957m  162.6302m  662.8621m 
 -379.87475m  125.5230m  699.9957m  162.7716m  662.7470m 
 -379.77475m  125.5494m  699.9956m  162.9130m  662.6320m 
 -379.67475m  125.5757m  699.9956m  163.0544m  662.5169m 
 -379.57475m  125.6021m  699.9956m  163.1958m  662.4019m 
 -379.47475m  125.6285m  699.9956m  163.3372m  662.2869m 
 -379.37475m  125.6550m  699.9955m  163.4786m  662.1719m 
 -379.27475m  125.6814m  699.9955m  163.6200m  662.0569m 
 -379.17475m  125.7079m  699.9955m  163.7614m  661.9420m 
 -379.07475m  125.7344m  699.9955m  163.9028m  661.8271m 
 -378.97475m  125.7609m  699.9954m  164.0442m  661.7122m 
 -378.87475m  125.7875m  699.9954m  164.1856m  661.5973m 
 -378.77475m  125.8140m  699.9954m  164.3270m  661.4824m 
 -378.67475m  125.8406m  699.9953m  164.4684m  661.3676m 
 -378.57475m  125.8672m  699.9953m  164.6098m  661.2528m 
 -378.47475m  125.8938m  699.9953m  164.7512m  661.1380m 
 -378.37475m  125.9205m  699.9953m  164.8926m  661.0232m 
 -378.27475m  125.9472m  699.9952m  165.0340m  660.9084m 
 -378.17475m  125.9739m  699.9952m  165.1753m  660.7937m 
 -378.07475m  126.0006m  699.9952m  165.3167m  660.6790m 
 -377.97475m  126.0273m  699.9951m  165.4581m  660.5643m 
 -377.87475m  126.0541m  699.9951m  165.5995m  660.4496m 
 -377.77475m  126.0808m  699.9951m  165.7409m  660.3350m 
 -377.67475m  126.1076m  699.9951m  165.8823m  660.2204m 
 -377.57475m  126.1344m  699.9950m  166.0237m  660.1058m 
 -377.47475m  126.1613m  699.9950m  166.1651m  659.9912m 
 -377.37475m  126.1881m  699.9950m  166.3065m  659.8766m 
 -377.27475m  126.2150m  699.9949m  166.4479m  659.7621m 
 -377.17475m  126.2419m  699.9949m  166.5893m  659.6476m 
 -377.07475m  126.2689m  699.9949m  166.7307m  659.5331m 
 -376.97475m  126.2958m  699.9949m  166.8721m  659.4186m 
 -376.87475m  126.3228m  699.9948m  167.0134m  659.3042m 
 -376.77475m  126.3498m  699.9948m  167.1548m  659.1897m 
 -376.67475m  126.3768m  699.9948m  167.2962m  659.0753m 
 -376.57475m  126.4038m  699.9947m  167.4376m  658.9609m 
 -376.47475m  126.4309m  699.9947m  167.5790m  658.8466m 
 -376.37475m  126.4580m  699.9947m  167.7204m  658.7322m 
 -376.27475m  126.4851m  699.9946m  167.8618m  658.6179m 
 -376.17475m  126.5122m  699.9946m  168.0032m  658.5036m 
 -376.07475m  126.5393m  699.9946m  168.1446m  658.3893m 
 -375.97475m  126.5665m  699.9945m  168.2860m  658.2751m 
 -375.87475m  126.5937m  699.9945m  168.4273m  658.1608m 
 -375.77475m  126.6209m  699.9945m  168.5687m  658.0466m 
 -375.67475m  126.6481m  699.9944m  168.7101m  657.9324m 
 -375.57475m  126.6754m  699.9944m  168.8515m  657.8183m 
 -375.47475m  126.7026m  699.9944m  168.9929m  657.7041m 
 -375.37475m  126.7299m  699.9943m  169.1343m  657.5900m 
 -375.27475m  126.7572m  699.9943m  169.2757m  657.4759m 
 -375.17475m  126.7846m  699.9943m  169.4171m  657.3618m 
 -375.07475m  126.8119m  699.9942m  169.5584m  657.2477m 
 -374.97475m  126.8393m  699.9942m  169.6998m  657.1337m 
 -374.87475m  126.8667m  699.9942m  169.8412m  657.0197m 
 -374.77475m  126.8942m  699.9941m  169.9826m  656.9057m 
 -374.67475m  126.9216m  699.9941m  170.1240m  656.7917m 
 -374.57475m  126.9491m  699.9941m  170.2654m  656.6778m 
 -374.47475m  126.9766m  699.9940m  170.4068m  656.5638m 
 -374.37475m  127.0041m  699.9940m  170.5482m  656.4499m 
 -374.27475m  127.0316m  699.9940m  170.6895m  656.3360m 
 -374.17475m  127.0592m  699.9939m  170.8309m  656.2222m 
 -374.07475m  127.0868m  699.9939m  170.9723m  656.1083m 
 -373.97475m  127.1144m  699.9939m  171.1137m  655.9945m 
 -373.87475m  127.1420m  699.9938m  171.2551m  655.8807m 
 -373.77475m  127.1696m  699.9938m  171.3965m  655.7669m 
 -373.67475m  127.1973m  699.9937m  171.5379m  655.6532m 
 -373.57475m  127.2250m  699.9937m  171.6792m  655.5395m 
 -373.47475m  127.2527m  699.9937m  171.8206m  655.4258m 
 -373.37475m  127.2804m  699.9936m  171.9620m  655.3121m 
 -373.27475m  127.3082m  699.9936m  172.1034m  655.1984m 
 -373.17475m  127.3360m  699.9936m  172.2448m  655.0848m 
 -373.07475m  127.3638m  699.9935m  172.3862m  654.9711m 
 -372.97475m  127.3916m  699.9935m  172.5275m  654.8575m 
 -372.87475m  127.4194m  699.9934m  172.6689m  654.7440m 
 -372.77475m  127.4473m  699.9934m  172.8103m  654.6304m 
 -372.67475m  127.4752m  699.9934m  172.9517m  654.5169m 
 -372.57475m  127.5031m  699.9933m  173.0931m  654.4034m 
 -372.47475m  127.5311m  699.9933m  173.2344m  654.2899m 
 -372.37475m  127.5590m  699.9932m  173.3758m  654.1764m 
 -372.27475m  127.5870m  699.9932m  173.5172m  654.0630m 
 -372.17475m  127.6150m  699.9932m  173.6586m  653.9496m 
 -372.07475m  127.6430m  699.9931m  173.8000m  653.8362m 
 -371.97475m  127.6711m  699.9931m  173.9414m  653.7228m 
 -371.87475m  127.6991m  699.9930m  174.0827m  653.6094m 
 -371.77475m  127.7272m  699.9930m  174.2241m  653.4961m 
 -371.67475m  127.7553m  699.9930m  174.3655m  653.3828m 
 -371.57475m  127.7835m  699.9929m  174.5069m  653.2695m 
 -371.47475m  127.8116m  699.9929m  174.6483m  653.1563m 
 -371.37475m  127.8398m  699.9928m  174.7896m  653.0430m 
 -371.27475m  127.8680m  699.9928m  174.9310m  652.9298m 
 -371.17475m  127.8962m  699.9928m  175.0724m  652.8166m 
 -371.07475m  127.9245m  699.9927m  175.2138m  652.7034m 
 -370.97475m  127.9528m  699.9927m  175.3551m  652.5903m 
 -370.87475m  127.9811m  699.9926m  175.4965m  652.4772m 
 -370.77475m  128.0094m  699.9926m  175.6379m  652.3640m 
 -370.67475m  128.0377m  699.9925m  175.7793m  652.2510m 
 -370.57475m  128.0661m  699.9925m  175.9207m  652.1379m 
 -370.47475m  128.0945m  699.9924m  176.0620m  652.0249m 
 -370.37475m  128.1229m  699.9924m  176.2034m  651.9119m 
 -370.27475m  128.1513m  699.9924m  176.3448m  651.7989m 
 -370.17475m  128.1797m  699.9923m  176.4862m  651.6859m 
 -370.07475m  128.2082m  699.9923m  176.6275m  651.5729m 
 -369.97475m  128.2367m  699.9922m  176.7689m  651.4600m 
 -369.87475m  128.2652m  699.9922m  176.9103m  651.3471m 
 -369.77475m  128.2938m  699.9921m  177.0517m  651.2342m 
 -369.67475m  128.3223m  699.9921m  177.1930m  651.1214m 
 -369.57475m  128.3509m  699.9920m  177.3344m  651.0086m 
 -369.47475m  128.3795m  699.9920m  177.4758m  650.8957m 
 -369.37475m  128.4082m  699.9919m  177.6172m  650.7830m 
 -369.27475m  128.4368m  699.9919m  177.7585m  650.6702m 
 -369.17475m  128.4655m  699.9918m  177.8999m  650.5575m 
 -369.07475m  128.4942m  699.9918m  178.0413m  650.4447m 
 -368.97475m  128.5229m  699.9917m  178.1827m  650.3320m 
 -368.87475m  128.5517m  699.9917m  178.3240m  650.2194m 
 -368.77475m  128.5805m  699.9916m  178.4654m  650.1067m 
 -368.67475m  128.6093m  699.9916m  178.6068m  649.9941m 
 -368.57475m  128.6381m  699.9915m  178.7481m  649.8815m 
 -368.47475m  128.6669m  699.9915m  178.8895m  649.7689m 
 -368.37475m  128.6958m  699.9914m  179.0309m  649.6563m 
 -368.27475m  128.7247m  699.9914m  179.1723m  649.5438m 
 -368.17475m  128.7536m  699.9913m  179.3136m  649.4313m 
 -368.07475m  128.7825m  699.9913m  179.4550m  649.3188m 
 -367.97475m  128.8115m  699.9912m  179.5964m  649.2063m 
 -367.87475m  128.8404m  699.9912m  179.7377m  649.0939m 
 -367.77475m  128.8694m  699.9911m  179.8791m  648.9815m 
 -367.67475m  128.8985m  699.9911m  180.0205m  648.8691m 
 -367.57475m  128.9275m  699.9910m  180.1618m  648.7567m 
 -367.47475m  128.9566m  699.9910m  180.3032m  648.6443m 
 -367.37475m  128.9857m  699.9909m  180.4446m  648.5320m 
 -367.27475m  129.0148m  699.9909m  180.5859m  648.4197m 
 -367.17475m  129.0439m  699.9908m  180.7273m  648.3074m 
 -367.07475m  129.0731m  699.9908m  180.8687m  648.1952m 
 -366.97475m  129.1023m  699.9907m  181.0100m  648.0829m 
 -366.87475m  129.1315m  699.9906m  181.1514m  647.9707m 
 -366.77475m  129.1607m  699.9906m  181.2928m  647.8585m 
 -366.67475m  129.1900m  699.9905m  181.4341m  647.7464m 
 -366.57475m  129.2192m  699.9905m  181.5755m  647.6342m 
 -366.47475m  129.2485m  699.9904m  181.7169m  647.5221m 
 -366.37475m  129.2779m  699.9904m  181.8582m  647.4100m 
 -366.27475m  129.3072m  699.9903m  181.9996m  647.2979m 
 -366.17475m  129.3366m  699.9903m  182.1410m  647.1859m 
 -366.07475m  129.3660m  699.9902m  182.2823m  647.0739m 
 -365.97475m  129.3954m  699.9901m  182.4237m  646.9619m 
 -365.87475m  129.4248m  699.9901m  182.5650m  646.8499m 
 -365.77475m  129.4543m  699.9900m  182.7064m  646.7379m 
 -365.67475m  129.4838m  699.9900m  182.8478m  646.6260m 
 -365.57475m  129.5133m  699.9899m  182.9891m  646.5141m 
 -365.47475m  129.5428m  699.9898m  183.1305m  646.4022m 
 -365.37475m  129.5724m  699.9898m  183.2719m  646.2903m 
 -365.27475m  129.6020m  699.9897m  183.4132m  646.1785m 
 -365.17475m  129.6316m  699.9897m  183.5546m  646.0667m 
 -365.07475m  129.6612m  699.9896m  183.6959m  645.9549m 
 -364.97475m  129.6909m  699.9895m  183.8373m  645.8431m 
 -364.87475m  129.7205m  699.9895m  183.9787m  645.7314m 
 -364.77475m  129.7502m  699.9894m  184.1200m  645.6196m 
 -364.67475m  129.7800m  699.9893m  184.2614m  645.5079m 
 -364.57475m  129.8097m  699.9893m  184.4027m  645.3963m 
 -364.47475m  129.8395m  699.9892m  184.5441m  645.2846m 
 -364.37475m  129.8693m  699.9892m  184.6854m  645.1730m 
 -364.27475m  129.8991m  699.9891m  184.8268m  645.0614m 
 -364.17475m  129.9289m  699.9890m  184.9682m  644.9498m 
 -364.07475m  129.9588m  699.9890m  185.1095m  644.8382m 
 -363.97475m  129.9887m  699.9889m  185.2509m  644.7267m 
 -363.87475m  130.0186m  699.9888m  185.3922m  644.6152m 
 -363.77475m  130.0485m  699.9888m  185.5336m  644.5037m 
 -363.67475m  130.0785m  699.9887m  185.6749m  644.3923m 
 -363.57475m  130.1085m  699.9886m  185.8163m  644.2808m 
 -363.47475m  130.1385m  699.9886m  185.9576m  644.1694m 
 -363.37475m  130.1685m  699.9885m  186.0990m  644.0580m 
 -363.27475m  130.1986m  699.9884m  186.2403m  643.9466m 
 -363.17475m  130.2286m  699.9883m  186.3817m  643.8353m 
 -363.07475m  130.2587m  699.9883m  186.5230m  643.7240m 
 -362.97475m  130.2889m  699.9882m  186.6644m  643.6127m 
 -362.87475m  130.3190m  699.9881m  186.8058m  643.5014m 
 -362.77475m  130.3492m  699.9881m  186.9471m  643.3902m 
 -362.67475m  130.3794m  699.9880m  187.0885m  643.2789m 
 -362.57475m  130.4096m  699.9879m  187.2298m  643.1677m 
 -362.47475m  130.4399m  699.9879m  187.3712m  643.0566m 
 -362.37475m  130.4701m  699.9878m  187.5125m  642.9454m 
 -362.27475m  130.5004m  699.9877m  187.6538m  642.8343m 
 -362.17475m  130.5307m  699.9876m  187.7952m  642.7232m 
 -362.07475m  130.5611m  699.9876m  187.9365m  642.6121m 
 -361.97475m  130.5914m  699.9875m  188.0779m  642.5010m 
 -361.87475m  130.6218m  699.9874m  188.2192m  642.3900m 
 -361.77475m  130.6522m  699.9873m  188.3606m  642.2790m 
 -361.67475m  130.6827m  699.9873m  188.5019m  642.1680m 
 -361.57475m  130.7131m  699.9872m  188.6433m  642.0570m 
 -361.47475m  130.7436m  699.9871m  188.7846m  641.9461m 
 -361.37475m  130.7741m  699.9870m  188.9260m  641.8352m 
 -361.27475m  130.8047m  699.9870m  189.0673m  641.7243m 
 -361.17475m  130.8352m  699.9869m  189.2086m  641.6134m 
 -361.07475m  130.8658m  699.9868m  189.3500m  641.5026m 
 -360.97475m  130.8964m  699.9867m  189.4913m  641.3918m 
 -360.87475m  130.9270m  699.9866m  189.6327m  641.2810m 
 -360.77475m  130.9577m  699.9866m  189.7740m  641.1702m 
 -360.67475m  130.9884m  699.9865m  189.9154m  641.0595m 
 -360.57475m  131.0191m  699.9864m  190.0567m  640.9488m 
 -360.47475m  131.0498m  699.9863m  190.1980m  640.8381m 
 -360.37475m  131.0805m  699.9862m  190.3394m  640.7274m 
 -360.27475m  131.1113m  699.9862m  190.4807m  640.6167m 
 -360.17475m  131.1421m  699.9861m  190.6221m  640.5061m 
 -360.07475m  131.1729m  699.9860m  190.7634m  640.3955m 
[...]
  256.45729m  399.9999m  172.0984m  534.7838m   37.3145m 
  256.55729m  399.9999m  172.0391m  534.8659m   37.1731m 
  256.65729m  399.9999m  171.9798m  534.9480m   37.0317m 
  256.75729m  399.9999m  171.9205m  535.0302m   36.8903m 
  256.85729m  399.9999m  171.8613m  535.1124m   36.7488m 
  256.95729m  399.9999m  171.8021m  535.1946m   36.6074m 
  257.05729m  399.9999m  171.7429m  535.2768m   36.4660m 
  257.15729m  399.9999m  171.6837m  535.3590m   36.3246m 
  257.25729m  399.9999m  171.6246m  535.4413m   36.1832m 
  257.35729m  399.9999m  171.5654m  535.5236m   36.0417m 
  257.45729m  399.9999m  171.5063m  535.6059m   35.9003m 
  257.55729m  399.9999m  171.4472m  535.6882m   35.7589m 
  257.65729m  399.9999m  171.3881m  535.7706m   35.6175m 
  257.75729m  399.9999m  171.3291m  535.8529m   35.4760m 
  257.85729m  399.9999m  171.2701m  535.9353m   35.3346m 
  257.95729m  399.9999m  171.2110m  536.0177m   35.1932m 
  258.05729m  399.9999m  171.1521m  536.1002m   35.0518m 
  258.15729m  399.9999m  171.0931m  536.1826m   34.9104m 
  258.25729m  399.9999m  171.0341m  536.2651m   34.7689m 
  258.35729m  399.9999m  170.9752m  536.3476m   34.6275m 
  258.45729m  399.9999m  170.9163m  536.4301m   34.4861m 
  258.55729m  399.9999m  170.8574m  536.5127m   34.3447m 
  258.65729m  399.9999m  170.7986m  536.5952m   34.2033m 
  258.75729m  399.9999m  170.7397m  536.6778m   34.0618m 
  258.85729m  399.9999m  170.6809m  536.7604m   33.9204m 
  258.95729m  399.9999m  170.6221m  536.8430m   33.7790m 
  259.05729m  399.9999m  170.5634m  536.9257m   33.6376m 
  259.15729m  399.9999m  170.5046m  537.0084m   33.4962m 
  259.25729m  399.9999m  170.4459m  537.0910m   33.3547m 
  259.35729m  399.9999m  170.3872m  537.1738m   33.2133m 
  259.45729m  399.9999m  170.3285m  537.2565m   33.0719m 
  259.55729m  399.9999m  170.2698m  537.3392m   32.9305m 
  259.65729m  399.9999m  170.2112m  537.4220m   32.7891m 
  259.75729m  399.9999m  170.1525m  537.5048m   32.6476m 
  259.85729m  399.9999m  170.0939m  537.5876m   32.5062m 
  259.95729m  399.9999m  170.0354m  537.6705m   32.3648m 
  260.05729m  399.9999m  169.9768m  537.7533m   32.2234m 
  260.15729m  399.9999m  169.9183m  537.8362m   32.0820m 
  260.25729m  399.9999m  169.8597m  537.9191m   31.9405m 
  260.35729m  399.9999m  169.8013m  538.0021m   31.7991m 
  260.45729m  399.9999m  169.7428m  538.0850m   31.6577m 
  260.55729m  399.9999m  169.6843m  538.1680m   31.5163m 
  260.65729m  399.9999m  169.6259m  538.2510m   31.3748m 
  260.75729m  399.9999m  169.5675m  538.3340m   31.2334m 
  260.85729m  399.9999m  169.5091m  538.4170m   31.0920m 
  260.95729m  399.9999m  169.4508m  538.5001m   30.9506m 
  261.05729m  399.9999m  169.3924m  538.5832m   30.8092m 
  261.15729m  399.9999m  169.3341m  538.6663m   30.6677m 
  261.25729m  399.9999m  169.2758m  538.7494m   30.5263m 
  261.35729m  399.9999m  169.2175m  538.8325m   30.3849m 
  261.45729m  399.9999m  169.1593m  538.9157m   30.2435m 
  261.55729m  399.9999m  169.1010m  538.9989m   30.1021m 
  261.65729m  399.9999m  169.0428m  539.0821m   29.9606m 
  261.75729m  399.9999m  168.9847m  539.1654m   29.8192m 
  261.85729m  399.9999m  168.9265m  539.2486m   29.6778m 
  261.95729m  399.9999m  168.8684m  539.3319m   29.5364m 
  262.05729m  399.9999m  168.8102m  539.4152m   29.3950m 
  262.15729m  399.9999m  168.7521m  539.4985m   29.2535m 
  262.25729m  399.9999m  168.6941m  539.5819m   29.1121m 
  262.35729m  399.9999m  168.6360m  539.6653m   28.9707m 
  262.45729m  399.9999m  168.5780m  539.7486m   28.8293m 
  262.55729m  399.9999m  168.5200m  539.8321m   28.6879m 
  262.65729m  399.9999m  168.4620m  539.9155m   28.5464m 
  262.75729m  399.9999m  168.4040m  539.9990m   28.4050m 
  262.85729m  399.9999m  168.3461m  540.0824m   28.2636m 
  262.95729m  399.9999m  168.2882m  540.1660m   28.1222m 
  263.05729m  399.9999m  168.2303m  540.2495m   27.9807m 
  263.15729m  399.9999m  168.1724m  540.3330m   27.8393m 
  263.25729m  399.9999m  168.1146m  540.4166m   27.6979m 
  263.35729m  399.9999m  168.0568m  540.5002m   27.5565m 
  263.45729m  399.9999m  167.9990m  540.5838m   27.4151m 
  263.55729m  399.9999m  167.9412m  540.6675m   27.2736m 
  263.65729m  399.9999m  167.8834m  540.7511m   27.1322m 
  263.75729m  399.9999m  167.8257m  540.8348m   26.9908m 
  263.85729m  399.9999m  167.7680m  540.9185m   26.8494m 
  263.95729m  399.9999m  167.7103m  541.0023m   26.7080m 
  264.05729m  399.9999m  167.6526m  541.0860m   26.5665m 
  264.15729m  399.9999m  167.5950m  541.1698m   26.4251m 
  264.25729m  399.9999m  167.5374m  541.2536m   26.2837m 
  264.35729m  399.9999m  167.4798m  541.3374m   26.1423m 
  264.45729m  399.9999m  167.4222m  541.4213m   26.0009m 
  264.55729m  399.9999m  167.3646m  541.5051m   25.8594m 
  264.65729m  399.9999m  167.3071m  541.5890m   25.7180m 
  264.75729m  399.9999m  167.2496m  541.6730m   25.5766m 
  264.85729m  399.9999m  167.1921m  541.7569m   25.4352m 
  264.95729m  399.9999m  167.1347m  541.8409m   25.2938m 
  265.05729m  399.9999m  167.0772m  541.9248m   25.1523m 
  265.15729m  399.9999m  167.0198m  542.0089m   25.0109m 
  265.25729m  399.9999m  166.9624m  542.0929m   24.8695m 
  265.35729m  399.9999m  166.9051m  542.1769m   24.7281m 
  265.45729m  399.9999m  166.8477m  542.2610m   24.5866m 
  265.55729m  399.9999m  166.7904m  542.3451m   24.4452m 
  265.65729m  399.9999m  166.7331m  542.4293m   24.3038m 
  265.75729m  399.9999m  166.6758m  542.5134m   24.1624m 
  265.85729m  399.9999m  166.6186m  542.5976m   24.0210m 
  265.95729m  399.9999m  166.5614m  542.6818m   23.8795m 
  266.05729m  399.9999m  166.5042m  542.7660m   23.7381m 
  266.15729m  399.9999m  166.4470m  542.8502m   23.5967m 
  266.25729m  399.9999m  166.3898m  542.9345m   23.4553m 
  266.35729m  399.9999m  166.3327m  543.0188m   23.3139m 
  266.45729m  399.9999m  166.2756m  543.1031m   23.1724m 
  266.55729m  399.9999m  166.2185m  543.1874m   23.0310m 
  266.65729m  399.9999m  166.1615m  543.2718m   22.8896m 
  266.75729m  399.9999m  166.1044m  543.3562m   22.7482m 
  266.85729m  399.9999m  166.0474m  543.4406m   22.6068m 
  266.95729m  399.9999m  165.9904m  543.5250m   22.4653m 
  267.05729m  399.9999m  165.9335m  543.6095m   22.3239m 
  267.15729m  399.9999m  165.8765m  543.6940m   22.1825m 
  267.25729m  399.9999m  165.8196m  543.7785m   22.0411m 
  267.35729m  399.9999m  165.7627m  543.8630m   21.8996m 
  267.45729m  399.9999m  165.7058m  543.9476m   21.7582m 
  267.55729m  399.9999m  165.6490m  544.0321m   21.6168m 
  267.65729m  399.9999m  165.5922m  544.1167m   21.4754m 
  267.75729m  399.9999m  165.5354m  544.2014m   21.3340m 
  267.85729m  400.0000m  165.4786m  544.2860m   21.1925m 
  267.95729m  400.0000m  165.4218m  544.3707m   21.0511m 
  268.05729m  400.0000m  165.3651m  544.4554m   20.9097m 
  268.15729m  400.0000m  165.3084m  544.5401m   20.7683m 
  268.25729m  400.0000m  165.2517m  544.6248m   20.6269m 
  268.35729m  400.0000m  165.1951m  544.7096m   20.4854m 
  268.45729m  400.0000m  165.1385m  544.7944m   20.3440m 
  268.55729m  400.0000m  165.0819m  544.8792m   20.2026m 
  268.65729m  400.0000m  165.0253m  544.9641m   20.0612m 
  268.75729m  400.0000m  164.9687m  545.0489m   19.9198m 
  268.85729m  400.0000m  164.9122m  545.1338m   19.7783m 
  268.95729m  400.0000m  164.8557m  545.2187m   19.6369m 
  269.05729m  400.0000m  164.7992m  545.3037m   19.4955m 
  269.15729m  400.0000m  164.7427m  545.3886m   19.3541m 
  269.25729m  400.0000m  164.6863m  545.4736m   19.2126m 
  269.35729m  400.0000m  164.6299m  545.5586m   19.0712m 
  269.45729m  400.0000m  164.5735m  545.6437m   18.9298m 
  269.55729m  400.0000m  164.5171m  545.7287m   18.7884m 
  269.65729m  400.0000m  164.4608m  545.8138m   18.6470m 
  269.75729m  400.0000m  164.4045m  545.8989m   18.5055m 
  269.85729m  400.0000m  164.3482m  545.9840m   18.3641m 
  269.95729m  400.0000m  164.2919m  546.0692m   18.2227m 
  270.05729m  400.0000m  164.2357m  546.1544m   18.0813m 
  270.15729m  400.0000m  164.1795m  546.2396m   17.9399m 
  270.25729m  400.0000m  164.1233m  546.3248m   17.7984m 
  270.35729m  400.0000m  164.0671m  546.4101m   17.6570m 
  270.45729m  400.0000m  164.0110m  546.4954m   17.5156m 
  270.55729m  400.0000m  163.9549m  546.5807m   17.3742m 
  270.65729m  400.0000m  163.8988m  546.6660m   17.2328m 
  270.75729m  400.0000m  163.8427m  546.7513m   17.0913m 
  270.85729m  400.0000m  163.7867m  546.8367m   16.9499m 
  270.95729m  400.0000m  163.7307m  546.9221m   16.8085m 
  271.05729m  400.0000m  163.6747m  547.0076m   16.6671m 
  271.15729m  400.0000m  163.6187m  547.0930m   16.5256m 
  271.25729m  400.0000m  163.5628m  547.1785m   16.3842m 
  271.35729m  400.0000m  163.5068m  547.2640m   16.2428m 
  271.45729m  400.0000m  163.4509m  547.3495m   16.1014m 
  271.55729m  400.0000m  163.3951m  547.4351m   15.9600m 
  271.65729m  400.0000m  163.3392m  547.5207m   15.8185m 
  271.75729m  400.0000m  163.2834m  547.6063m   15.6771m 
  271.85729m  400.0000m  163.2276m  547.6919m   15.5357m 
  271.95729m  400.0000m  163.1719m  547.7775m   15.3943m 
  272.05729m  400.0000m  163.1161m  547.8632m   15.2529m 
  272.15729m  400.0000m  163.0604m  547.9489m   15.1114m 
  272.25729m  400.0000m  163.0047m  548.0347m   14.9700m 
  272.35729m  400.0000m  162.9490m  548.1204m   14.8286m 
  272.45729m  400.0000m  162.8934m  548.2062m   14.6872m 
  272.55729m  400.0000m  162.8378m  548.2920m   14.5458m 
  272.65729m  400.0000m  162.7822m  548.3778m   14.4043m 
  272.75729m  400.0000m  162.7266m  548.4637m   14.2629m 
  272.85729m  400.0000m  162.6711m  548.5496m   14.1215m 
  272.95729m  400.0000m  162.6156m  548.6355m   13.9801m 
  273.05729m  400.0000m  162.5601m  548.7214m   13.8386m 
  273.15729m  400.0000m  162.5046m  548.8074m   13.6972m 
  273.25729m  400.0000m  162.4492m  548.8933m   13.5558m 
  273.35729m  400.0000m  162.3938m  548.9793m   13.4144m 
  273.45729m  400.0000m  162.3384m  549.0654m   13.2730m 
  273.55729m  400.0000m  162.2830m  549.1514m   13.1315m 
  273.65729m  400.0000m  162.2277m  549.2375m   12.9901m 
  273.75729m  400.0000m  162.1724m  549.3236m   12.8487m 
  273.85729m  400.0000m  162.1171m  549.4098m   12.7073m 
  273.95729m  400.0000m  162.0618m  549.4959m   12.5659m 
  274.05729m  400.0000m  162.0066m  549.5821m   12.4244m 
  274.15729m  400.0000m  161.9514m  549.6683m   12.2830m 
  274.25729m  400.0000m  161.8962m  549.7546m   12.1416m 
  274.35729m  400.0000m  161.8410m  549.8408m   12.0002m 
  274.45729m  400.0000m  161.7859m  549.9271m   11.8587m 
  274.55729m  400.0000m  161.7308m  550.0134m   11.7173m 
  274.65729m  400.0000m  161.6757m  550.0998m   11.5759m 
  274.75729m  400.0000m  161.6207m  550.1861m   11.4345m 
  274.85729m  400.0000m  161.5656m  550.2725m   11.2931m 
  274.95729m  400.0000m  161.5106m  550.3590m   11.1516m 
  275.05729m  400.0000m  161.4556m  550.4454m   11.0102m 
  275.15729m  400.0000m  161.4007m  550.5319m   10.8688m 
  275.25729m  400.0000m  161.3458m  550.6184m   10.7274m 
  275.35729m  400.0000m  161.2909m  550.7049m   10.5860m 
  275.45729m  400.0000m  161.2360m  550.7914m   10.4445m 
  275.55729m  400.0000m  161.1811m  550.8780m   10.3031m 
  275.65729m  400.0000m  161.1263m  550.9646m   10.1617m 
  275.75729m  400.0000m  161.0715m  551.0512m   10.0203m 
  275.85729m  400.0000m  161.0168m  551.1379m    9.8789m 
  275.95729m  400.0000m  160.9620m  551.2246m    9.7374m 
  276.05729m  400.0000m  160.9073m  551.3113m    9.5960m 
  276.15729m  400.0000m  160.8526m  551.3980m    9.4546m 
  276.25729m  400.0000m  160.7979m  551.4847m    9.3132m 
  276.35729m  400.0000m  160.7433m  551.5715m    9.1717m 
  276.45729m  400.0000m  160.6887m  551.6583m    9.0303m 
  276.55729m  400.0000m  160.6341m  551.7452m    8.8889m 
  276.65729m  400.0000m  160.5795m  551.8320m    8.7475m 
  276.75729m  400.0000m  160.5250m  551.9189m    8.6061m 
  276.85729m  400.0000m  160.4705m  552.0058m    8.4646m 
  276.95729m  400.0000m  160.4160m  552.0928m    8.3232m 
  277.05729m  400.0000m  160.3616m  552.1797m    8.1818m 
  277.15729m  400.0000m  160.3071m  552.2667m    8.0404m 
  277.25729m  400.0000m  160.2527m  552.3538m    7.8990m 
  277.35729m  400.0000m  160.1984m  552.4408m    7.7575m 
  277.45729m  400.0000m  160.1440m  552.5279m    7.6161m 
  277.55729m  400.0000m  160.0897m  552.6150m    7.4747m 
  277.65729m  400.0000m  160.0354m  552.7021m    7.3333m 
  277.75729m  400.0000m  159.9811m  552.7892m    7.1919m 
  277.85729m  400.0000m  159.9269m  552.8764m    7.0504m 
  277.95729m  400.0000m  159.8727m  552.9636m    6.9090m 
  278.05729m  400.0000m  159.8185m  553.0509m    6.7676m 
  278.15729m  400.0000m  159.7643m  553.1381m    6.6262m 
  278.25729m  400.0000m  159.7102m  553.2254m    6.4847m 
  278.35729m  400.0000m  159.6561m  553.3127m    6.3433m 
  278.45729m  400.0000m  159.6020m  553.4000m    6.2019m 
  278.55729m  400.0000m  159.5479m  553.4874m    6.0605m 
  278.65729m  400.0000m  159.4939m  553.5748m    5.9191m 
  278.75729m  400.0000m  159.4399m  553.6622m    5.7776m 
  278.85729m  400.0000m  159.3859m  553.7497m    5.6362m 
  278.95729m  400.0000m  159.3320m  553.8371m    5.4948m 
  279.05729m  400.0000m  159.2780m  553.9246m    5.3534m 
  279.15729m  400.0000m  159.2241m  554.0122m    5.2120m 
  279.25729m  400.0000m  159.1703m  554.0997m    5.0705m 
  279.35729m  400.0000m  159.1164m  554.1873m    4.9291m 
  279.45729m  400.0000m  159.0626m  554.2749m    4.7877m 
  279.55729m  400.0000m  159.0088m  554.3625m    4.6463m 
  279.65729m  400.0000m  158.9550m  554.4502m    4.5048m 
  279.75729m  400.0000m  158.9013m  554.5379m    4.3634m 
  279.85729m  400.0000m  158.8476m  554.6256m    4.2220m 
  279.95729m  400.0000m  158.7939m  554.7133m    4.0806m 
  280.05729m  400.0000m  158.7403m  554.8011m    3.9392m 
  280.15729m  400.0000m  158.6866m  554.8889m    3.7977m 
  280.25729m  400.0000m  158.6330m  554.9767m    3.6563m 
  280.35729m  400.0000m  158.5795m  555.0645m    3.5149m 
  280.45729m  400.0000m  158.5259m  555.1524m    3.3735m 
  280.55729m  400.0000m  158.4724m  555.2403m    3.2321m 
  280.65729m  400.0000m  158.4189m  555.3282m    3.0906m 
  280.75729m  400.0000m  158.3654m  555.4162m    2.9492m 
  280.85729m  400.0000m  158.3120m  555.5042m    2.8078m 
  280.95729m  400.0000m  158.2586m  555.5922m    2.6664m 
  281.05729m  400.0000m  158.2052m  555.6802m    2.5250m 
  281.15729m  400.0000m  158.1519m  555.7683m    2.3835m 
  281.25729m  400.0000m  158.0985m  555.8564m    2.2421m 
  281.35729m  400.0000m  158.0452m  555.9445m    2.1007m 
  281.45729m  400.0000m  157.9919m  556.0327m    1.9593m 
  281.55729m  400.0000m  157.9387m  556.1208m    1.8178m 
  281.65729m  400.0000m  157.8855m  556.2090m    1.6764m 
  281.75729m  400.0000m  157.8323m  556.2973m    1.5350m 
  281.85729m  400.0000m  157.7791m  556.3855m    1.3936m 
  281.95729m  400.0000m  157.7260m  556.4738m    1.2522m 
  282.05729m  400.0000m  157.6729m  556.5621m    1.1107m 
  282.15729m  400.0000m  157.6198m  556.6505m  969.3165u 
  282.25729m  400.0000m  157.5667m  556.7388m  827.8953u 
  282.35729m  400.0000m  157.5137m  556.8272m  686.4740u 
  282.45729m  400.0000m  157.4607m  556.9156m  545.0528u 
  282.55729m  400.0000m  157.4077m  557.0041m  403.6316u 
  282.65729m  400.0000m  157.3548m  557.0926m  262.2103u 
  282.75729m  400.0000m  157.3019m  557.1811m  120.7891u 
y
 max_1= 222.2876m    at= 282.7573m
             from=-282.8427m    to= 282.7573m
 max_2= 222.3946m    at=-282.8427m
             from=-282.8427m    to= 282.7573m
 snm= 157.1811m
 ******  
 .title noise margin in hold operation

 ****** operating point information tnom=  25.000 temp=  25.000 ******
 ****** operating point status is all       simulation time is     0.     
    node    =voltage      node    =voltage      node    =voltage

 +0:bl      = 400.0000m 0:blb     = 400.0000m 0:gl      = 345.0172m
 +0:gr      = 345.0172m 0:q       = 345.0172m 0:qb      = 345.0172m
 +0:u       =   0.      0:v1      = 487.9280m 0:v2      = 487.9280m
 +0:vdd     = 400.0000m 0:wl      = 700.0000m 0:x       = 310.8053m


 **** voltage sources

 subckt                                   
 element  0:vu       0:vvdd     0:vwl     
  volts      0.       400.0000m  700.0000m
  current    0.       -30.7316p  -87.4562f
  power      0.        12.2926p   61.2194f

     total voltage source power dissipation=   12.3539p       watts



 **** voltage-controlled voltage sources


 subckt                                              
 element  0:eli      0:ev1      0:eri      0:ev2     
  volts    345.0172m  487.9280m  345.0172m  487.9280m
  current  -20.9462f    0.       -20.9462f    0.     





 **** mosfets


 subckt                                                                    
 element  0:mpr      0:mnr      0:mpl      0:mnl      0:mnpr     0:mnpl    
 model    0:pmos_sra 0:nmos_sra 0:pmos_sra 0:nmos_sra 0:nmos_sra 0:nmos_sra
 region   Subth      Subth      Subth      Subth      Subth      Subth     
  id       -15.3624p  223.1523n  -15.3624p  223.1523n  223.1369n  223.1369n
  ibs        0.         0.         0.         0.         0.         0.     
  ibd        0.         0.         0.         0.         0.         0.     
  vgs      -54.9828m  345.0172m  -54.9828m  345.0172m  354.9828m  354.9828m
  vds      -54.9828m  345.0172m  -54.9828m  345.0172m   54.9828m   54.9828m
  vbs      -89.1947m  310.8053m  -89.1947m  310.8053m  -34.2119m  -34.2119m
  vth     -338.8793m  408.6312m -338.8793m  408.6312m  410.0355m  410.0355m
  vdsat    -72.7983m   74.7870m  -72.7983m   74.7870m   75.9309m   75.9309m
  vod      283.8965m  -63.6140m  283.8965m  -63.6140m  -55.0527m  -55.0527m
  beta       1.6413m    2.1736m    1.6413m    2.1736m    2.1736m    2.1736m
  gam eff    0.         0.         0.         0.         0.         0.     
  gm       594.7838p    7.6371u  594.7838p    7.6371u    7.3139u    7.3139u
  gds       77.6848p  119.1214n   77.6848p  119.1214n    1.3742u    1.3742u
  gmb      186.8079a    3.0871p  186.8079a    3.0871p    2.3225p    2.3225p
  cdtot     10.2226a   10.2206a   10.2226a   10.2206a   10.6744a   10.6744a
  cgtot     20.4460a   23.5855a   20.4460a   23.5855a   25.2988a   25.2988a
  cstot     10.2231a   12.3560a   10.2231a   12.3560a   12.9717a   12.9717a
  cbtot      0.         0.         0.         0.         0.         0.     
  cgs       10.2234a   13.3770a   10.2234a   13.3770a   14.4125a   14.4125a
  cgd       10.2226a   10.2085a   10.2226a   10.2085a   10.8863a   10.8863a




          ***** job concluded
 ******  
 .title noise margin in hold operation

 ****** job statistics summary tnom=  25.000 temp=  25.000 ******

  ******  Circuit Statistics  ******
  # nodes       =      13 # elements   =      15
  # resistors   =       0 # capacitors =       2 # inductors   =       0
  # mutual_inds =       0 # vccs       =       0 # vcvs        =       4
  # cccs        =       0 # ccvs       =       0 # volt_srcs   =       3
  # curr_srcs   =       0 # diodes     =       0 # bjts        =       0
  # jfets       =       0 # mosfets    =       6 # U elements  =       0
  # T elements  =       0 # W elements =       0 # B elements  =       0
  # S elements  =       0 # P elements =       0 # va device   =       0
  # vector_srcs =       0 # N elements =       0


  ******  Runtime Statistics (seconds)  ******

  analysis           time    # points   tot. iter  conv.iter
  op point           0.01           1           4
  dc sweep           0.41        5657       16974
  readin             0.00
  errchk             0.00
  setup              0.00
  output             0.00


           peak memory used        406.95 megabytes
           total cpu time            0.47 seconds
           total elapsed time        0.47 seconds
           job started at     20:40:12 03/23/2025
           job ended   at     20:40:15 03/23/2025
           job total runtime         2.78 seconds


 lic: Release hspice token(s) 
 lic: total license checkout elapse time:        0.16(s)
