 ****** HSPICE -- Q-2020.03-SP2-2 linux64 (Nov  1 2020) ******                  
  Copyright (c) 1986 - 2025 by Synopsys, Inc. All Rights Reserved.              
  This software and the associated documentation are proprietary
  to Synopsys, Inc. This software may only be used in accordance
  with the terms and conditions of a written license agreement with
  Synopsys, Inc. All other use, reproduction, or distribution of
  this software is strictly prohibited.
  Input File: SRAM_SNM_SS.sp                                                    
  Command line options: /RAID2/cad/synopsys/hspice/2020.03-sp2-2/hspice/linux64/hspice -i SRAM_SNM_SS.sp -o SRAM_SNM_SS.lis
  Start time: Sun Mar 23 13:40:26 2025
 lic:  
 lic: FLEXlm: SDK_12.6 
 lic: USER:   es25MCS042           HOSTNAME: ee28 
 lic: HOSTID: "d85ed3efc19a"       PID:      127366 
 lic: Using FLEXlm license file: 
 lic: 26585@lshc 
 lic: Checkout 1 hspice 
 lic: License/Maintenance for hspice will expire on 14-may-2025/2024.09 
 lic: 180(in_use)/1100(total) FLOATING license(s) on SERVER 26585@lshc 
 lic:   
  
      
             
 Warning:'Floating bulk' occurs 1 times
 Summary of floating bulk:
 -----------------------
 |Node      |Device    |
 |----------+----------|
 |x         |mpr       |
 -----------------------
              
 *****************************************************************
 ******  option summary
 ******
 runlvl  = 3         bypass  = 2.0000    
 ******
 .title noise margin in hold operation

 ****** dc transfer curves tnom=  25.000 temp=  25.000 ******
x

 volt         voltage    voltage    voltage    voltage   
             q          qb         gl         gr         
 -494.97475m   17.0001n  700.0000m  -15.1156n  700.0000m 
 -494.87475m   17.0648n  700.0000m  141.4062u  699.8586m 
 -494.77475m   17.1300n  700.0000m  282.8275u  699.7172m 
 -494.67475m   17.1955n  700.0000m  424.2488u  699.5758m 
 -494.57475m   17.2615n  700.0000m  565.6701u  699.4343m 
 -494.47475m   17.3278n  700.0000m  707.0914u  699.2929m 
 -494.37475m   17.3945n  700.0000m  848.5127u  699.1515m 
 -494.27475m   17.4615n  700.0000m  989.9340u  699.0101m 
 -494.17475m   17.5290n  700.0000m    1.1314m  698.8686m 
 -494.07475m   17.5969n  700.0000m    1.2728m  698.7272m 
 -493.97475m   17.6652n  700.0000m    1.4142m  698.5858m 
 -493.87475m   17.7338n  700.0000m    1.5556m  698.4444m 
 -493.77475m   17.8029n  700.0000m    1.6970m  698.3030m 
 -493.67475m   17.8724n  700.0000m    1.8385m  698.1615m 
 -493.57475m   17.9423n  700.0000m    1.9799m  698.0201m 
 -493.47475m   18.0126n  700.0000m    2.1213m  697.8787m 
 -493.37475m   18.0833n  700.0000m    2.2627m  697.7373m 
 -493.27475m   18.1544n  700.0000m    2.4041m  697.5959m 
 -493.17475m   18.2259n  700.0000m    2.5456m  697.4544m 
 -493.07475m   18.2979n  700.0000m    2.6870m  697.3130m 
 -492.97475m   18.3702n  700.0000m    2.8284m  697.1716m 
 -492.87475m   18.4430n  700.0000m    2.9698m  697.0302m 
 -492.77475m   18.5162n  700.0000m    3.1113m  696.8887m 
 -492.67475m   18.5899n  700.0000m    3.2527m  696.7473m 
 -492.57475m   18.6639n  700.0000m    3.3941m  696.6059m 
 -492.47475m   18.7385n  700.0000m    3.5355m  696.4645m 
 -492.37475m   18.8134n  700.0000m    3.6769m  696.3231m 
 -492.27475m   18.8888n  700.0000m    3.8184m  696.1816m 
 -492.17475m   18.9646n  700.0000m    3.9598m  696.0402m 
 -492.07475m   19.0409n  700.0000m    4.1012m  695.8988m 
 -491.97475m   19.1176n  700.0000m    4.2426m  695.7574m 
 -491.87475m   19.1947n  700.0000m    4.3840m  695.6160m 
 -491.77475m   19.2723n  700.0000m    4.5255m  695.4745m 
 -491.67475m   19.3504n  700.0000m    4.6669m  695.3331m 
 -491.57475m   19.4289n  700.0000m    4.8083m  695.1917m 
 -491.47475m   19.5079n  700.0000m    4.9497m  695.0503m 
 -491.37475m   19.5873n  700.0000m    5.0912m  694.9089m 
 -491.27475m   19.6672n  700.0000m    5.2326m  694.7674m 
 -491.17475m   19.7476n  700.0000m    5.3740m  694.6260m 
 -491.07475m   19.8284n  700.0000m    5.5154m  694.4846m 
 -490.97475m   19.9098n  700.0000m    5.6568m  694.3432m 
 -490.87475m   19.9915n  700.0000m    5.7983m  694.2017m 
 -490.77475m   20.0738n  700.0000m    5.9397m  694.0603m 
 -490.67475m   20.1565n  700.0000m    6.0811m  693.9189m 
 -490.57475m   20.2398n  700.0000m    6.2225m  693.7775m 
 -490.47475m   20.3235n  700.0000m    6.3639m  693.6361m 
 -490.37475m   20.4077n  700.0000m    6.5054m  693.4946m 
 -490.27475m   20.4924n  700.0000m    6.6468m  693.3532m 
 -490.17475m   20.5775n  700.0000m    6.7882m  693.2118m 
 -490.07475m   20.6632n  700.0000m    6.9296m  693.0704m 
 -489.97475m   20.7494n  700.0000m    7.0710m  692.9290m 
 -489.87475m   20.8361n  700.0000m    7.2125m  692.7875m 
 -489.77475m   20.9233n  700.0000m    7.3539m  692.6461m 
 -489.67475m   21.0110n  700.0000m    7.4953m  692.5047m 
 -489.57475m   21.0992n  700.0000m    7.6367m  692.3633m 
 -489.47475m   21.1879n  700.0000m    7.7782m  692.2218m 
 -489.37475m   21.2771n  700.0000m    7.9196m  692.0804m 
 -489.27475m   21.3669n  700.0000m    8.0610m  691.9390m 
 -489.17475m   21.4572n  700.0000m    8.2024m  691.7976m 
 -489.07475m   21.5480n  700.0000m    8.3438m  691.6562m 
 -488.97475m   21.6393n  700.0000m    8.4853m  691.5147m 
 -488.87475m   21.7312n  700.0000m    8.6267m  691.3733m 
 -488.77475m   21.8236n  700.0000m    8.7681m  691.2319m 
 -488.67475m   21.9166n  700.0000m    8.9095m  691.0905m 
 -488.57475m   22.0101n  700.0000m    9.0509m  690.9491m 
 -488.47475m   22.1041n  700.0000m    9.1924m  690.8076m 
 -488.37475m   22.1987n  700.0000m    9.3338m  690.6662m 
 -488.27475m   22.2938n  700.0000m    9.4752m  690.5248m 
 -488.17475m   22.3895n  700.0000m    9.6166m  690.3834m 
 -488.07475m   22.4858n  700.0000m    9.7581m  690.2419m 
 -487.97475m   22.5826n  700.0000m    9.8995m  690.1005m 
 -487.87475m   22.6800n  700.0000m   10.0409m  689.9591m 
 -487.77475m   22.7779n  700.0000m   10.1823m  689.8177m 
 -487.67475m   22.8764n  700.0000m   10.3237m  689.6763m 
 -487.57475m   22.9755n  700.0000m   10.4652m  689.5348m 
 -487.47475m   23.0752n  700.0000m   10.6066m  689.3934m 
 -487.37475m   23.1754n  700.0000m   10.7480m  689.2520m 
 -487.27475m   23.2763n  700.0000m   10.8894m  689.1106m 
 -487.17475m   23.3777n  700.0000m   11.0308m  688.9692m 
 -487.07475m   23.4797n  700.0000m   11.1723m  688.8277m 
 -486.97475m   23.5823n  700.0000m   11.3137m  688.6863m 
 -486.87475m   23.6855n  700.0000m   11.4551m  688.5449m 
 -486.77475m   23.7893n  700.0000m   11.5965m  688.4035m 
 -486.67475m   23.8937n  700.0000m   11.7380m  688.2621m 
 -486.57475m   23.9987n  700.0000m   11.8794m  688.1206m 
 -486.47475m   24.1044n  700.0000m   12.0208m  687.9792m 
 -486.37475m   24.2106n  700.0000m   12.1622m  687.8378m 
 -486.27475m   24.3175n  700.0000m   12.3036m  687.6964m 
 -486.17475m   24.4250n  700.0000m   12.4451m  687.5549m 
 -486.07475m   24.5331n  700.0000m   12.5865m  687.4135m 
 -485.97475m   24.6418n  700.0000m   12.7279m  687.2721m 
 -485.87475m   24.7512n  700.0000m   12.8693m  687.1307m 
 -485.77475m   24.8612n  700.0000m   13.0107m  686.9893m 
 -485.67475m   24.9719n  700.0000m   13.1522m  686.8478m 
 -485.57475m   25.0832n  700.0000m   13.2936m  686.7064m 
 -485.47475m   25.1951n  700.0000m   13.4350m  686.5650m 
 -485.37475m   25.3077n  700.0000m   13.5764m  686.4236m 
 -485.27475m   25.4210n  700.0000m   13.7178m  686.2822m 
 -485.17475m   25.5349n  700.0000m   13.8593m  686.1407m 
 -485.07475m   25.6495n  700.0000m   14.0007m  685.9993m 
 -484.97475m   25.7647n  700.0000m   14.1421m  685.8579m 
 -484.87475m   25.8806n  700.0000m   14.2835m  685.7165m 
 -484.77475m   25.9972n  700.0000m   14.4250m  685.5750m 
 -484.67475m   26.1145n  700.0000m   14.5664m  685.4336m 
 -484.57475m   26.2325n  700.0000m   14.7078m  685.2922m 
 -484.47475m   26.3511n  700.0000m   14.8492m  685.1508m 
 -484.37475m   26.4705n  700.0000m   14.9906m  685.0094m 
 -484.27475m   26.5905n  700.0000m   15.1321m  684.8679m 
 -484.17475m   26.7112n  700.0000m   15.2735m  684.7265m 
 -484.07475m   26.8327n  700.0000m   15.4149m  684.5851m 
 -483.97475m   26.9548n  700.0000m   15.5563m  684.4437m 
 -483.87475m   27.0777n  700.0000m   15.6977m  684.3023m 
 -483.77475m   27.2012n  700.0000m   15.8392m  684.1608m 
 -483.67475m   27.3255n  700.0000m   15.9806m  684.0194m 
 -483.57475m   27.4505n  700.0000m   16.1220m  683.8780m 
 -483.47475m   27.5763n  700.0000m   16.2634m  683.7366m 
 -483.37475m   27.7027n  700.0000m   16.4049m  683.5952m 
 -483.27475m   27.8300n  700.0000m   16.5463m  683.4537m 
 -483.17475m   27.9579n  700.0000m   16.6877m  683.3123m 
 -483.07475m   28.0866n  700.0000m   16.8291m  683.1709m 
 -482.97475m   28.2161n  700.0000m   16.9705m  683.0295m 
 -482.87475m   28.3463n  700.0000m   17.1120m  682.8880m 
 -482.77475m   28.4772n  700.0000m   17.2534m  682.7466m 
 -482.67475m   28.6089n  700.0000m   17.3948m  682.6052m 
 -482.57475m   28.7414n  700.0000m   17.5362m  682.4638m 
 -482.47475m   28.8747n  700.0000m   17.6776m  682.3224m 
 -482.37475m   29.0087n  700.0000m   17.8191m  682.1809m 
 -482.27475m   29.1436n  700.0000m   17.9605m  682.0395m 
 -482.17475m   29.2792n  700.0000m   18.1019m  681.8981m 
 -482.07475m   29.4156n  700.0000m   18.2433m  681.7567m 
 -481.97475m   29.5527n  700.0000m   18.3848m  681.6153m 
 -481.87475m   29.6907n  700.0000m   18.5262m  681.4738m 
 -481.77475m   29.8295n  700.0000m   18.6676m  681.3324m 
 -481.67475m   29.9691n  700.0000m   18.8090m  681.1910m 
 -481.57475m   30.1095n  700.0000m   18.9504m  681.0496m 
 -481.47475m   30.2508n  700.0000m   19.0919m  680.9081m 
 -481.37475m   30.3928n  700.0000m   19.2333m  680.7667m 
 -481.27475m   30.5357n  700.0000m   19.3747m  680.6253m 
 -481.17475m   30.6794n  700.0000m   19.5161m  680.4839m 
 -481.07475m   30.8240n  700.0000m   19.6575m  680.3425m 
 -480.97475m   30.9694n  700.0000m   19.7990m  680.2010m 
 -480.87475m   31.1156n  700.0000m   19.9404m  680.0596m 
 -480.77475m   31.2627n  700.0000m   20.0818m  679.9182m 
 -480.67475m   31.4106n  700.0000m   20.2232m  679.7768m 
 -480.57475m   31.5594n  700.0000m   20.3646m  679.6354m 
 -480.47475m   31.7091n  700.0000m   20.5061m  679.4939m 
 -480.37475m   31.8597n  700.0000m   20.6475m  679.3525m 
 -480.27475m   32.0111n  700.0000m   20.7889m  679.2111m 
 -480.17475m   32.1634n  700.0000m   20.9303m  679.0697m 
 -480.07475m   32.3166n  700.0000m   21.0718m  678.9283m 
 -479.97475m   32.4707n  700.0000m   21.2132m  678.7868m 
 -479.87475m   32.6257n  700.0000m   21.3546m  678.6454m 
 -479.77475m   32.7816n  700.0000m   21.4960m  678.5040m 
 -479.67475m   32.9384n  700.0000m   21.6374m  678.3626m 
 -479.57475m   33.0961n  700.0000m   21.7789m  678.2211m 
 -479.47475m   33.2547n  700.0000m   21.9203m  678.0797m 
 -479.37475m   33.4142n  700.0000m   22.0617m  677.9383m 
 -479.27475m   33.5747n  700.0000m   22.2031m  677.7969m 
 -479.17475m   33.7361n  700.0000m   22.3445m  677.6555m 
 -479.07475m   33.8985n  700.0000m   22.4860m  677.5140m 
 -478.97475m   34.0618n  700.0000m   22.6274m  677.3726m 
 -478.87475m   34.2261n  700.0000m   22.7688m  677.2312m 
 -478.77475m   34.3913n  700.0000m   22.9102m  677.0898m 
 -478.67475m   34.5574n  700.0000m   23.0517m  676.9484m 
 -478.57475m   34.7246n  700.0000m   23.1931m  676.8069m 
 -478.47475m   34.8927n  700.0000m   23.3345m  676.6655m 
 -478.37475m   35.0618n  700.0000m   23.4759m  676.5241m 
 -478.27475m   35.2319n  700.0000m   23.6173m  676.3827m 
 -478.17475m   35.4029n  700.0000m   23.7588m  676.2412m 
 -478.07475m   35.5750n  700.0000m   23.9002m  676.0998m 
 -477.97475m   35.7481n  700.0000m   24.0416m  675.9584m 
 -477.87475m   35.9221n  700.0000m   24.1830m  675.8170m 
 -477.77475m   36.0972n  700.0000m   24.3244m  675.6756m 
 -477.67475m   36.2733n  700.0000m   24.4659m  675.5341m 
 -477.57475m   36.4505n  700.0000m   24.6073m  675.3927m 
 -477.47475m   36.6287n  700.0000m   24.7487m  675.2513m 
 -477.37475m   36.8079n  700.0000m   24.8901m  675.1099m 
 -477.27475m   36.9881n  700.0000m   25.0315m  674.9685m 
 -477.17475m   37.1694n  700.0000m   25.1730m  674.8270m 
 -477.07475m   37.3518n  700.0000m   25.3144m  674.6856m 
 -476.97475m   37.5352n  700.0000m   25.4558m  674.5442m 
 -476.87475m   37.7197n  700.0000m   25.5972m  674.4028m 
 -476.77475m   37.9052n  700.0000m   25.7387m  674.2614m 
 -476.67475m   38.0919n  700.0000m   25.8801m  674.1199m 
 -476.57475m   38.2796n  700.0000m   26.0215m  673.9785m 
 -476.47475m   38.4684n  700.0000m   26.1629m  673.8371m 
 -476.37475m   38.6584n  700.0000m   26.3043m  673.6957m 
 -476.27475m   38.8494n  700.0000m   26.4458m  673.5542m 
 -476.17475m   39.0416n  700.0000m   26.5872m  673.4128m 
 -476.07475m   39.2348n  700.0000m   26.7286m  673.2714m 
 -475.97475m   39.4292n  700.0000m   26.8700m  673.1300m 
 -475.87475m   39.6247n  700.0000m   27.0114m  672.9886m 
 -475.77475m   39.8214n  700.0000m   27.1529m  672.8471m 
 -475.67475m   40.0192n  700.0000m   27.2943m  672.7057m 
 -475.57475m   40.2182n  700.0000m   27.4357m  672.5643m 
 -475.47475m   40.4183n  700.0000m   27.5771m  672.4229m 
 -475.37475m   40.6196n  700.0000m   27.7186m  672.2815m 
 -475.27475m   40.8221n  700.0000m   27.8600m  672.1400m 
 -475.17475m   41.0257n  700.0000m   28.0014m  671.9986m 
 -475.07475m   41.2305n  700.0000m   28.1428m  671.8572m 
 -474.97475m   41.4366n  700.0000m   28.2842m  671.7158m 
 -474.87475m   41.6438n  700.0000m   28.4257m  671.5743m 
 -474.77475m   41.8522n  700.0000m   28.5671m  671.4329m 
 -474.67475m   42.0619n  700.0000m   28.7085m  671.2915m 
 -474.57475m   42.2727n  700.0000m   28.8499m  671.1501m 
 -474.47475m   42.4848n  700.0000m   28.9913m  671.0087m 
 -474.37475m   42.6982n  700.0000m   29.1328m  670.8672m 
 -474.27475m   42.9127n  700.0000m   29.2742m  670.7258m 
 -474.17475m   43.1286n  700.0000m   29.4156m  670.5844m 
 -474.07475m   43.3457n  700.0000m   29.5570m  670.4430m 
 -473.97475m   43.5640n  700.0000m   29.6984m  670.3016m 
 -473.87475m   43.7836n  700.0000m   29.8399m  670.1601m 
 -473.77475m   44.0045n  700.0000m   29.9813m  670.0187m 
 -473.67475m   44.2267n  700.0000m   30.1227m  669.8773m 
 -473.57475m   44.4502n  700.0000m   30.2641m  669.7359m 
 -473.47475m   44.6750n  700.0000m   30.4056m  669.5945m 
 -473.37475m   44.9011n  700.0000m   30.5470m  669.4530m 
 -473.27475m   45.1285n  700.0000m   30.6884m  669.3116m 
 -473.17475m   45.3573n  700.0000m   30.8298m  669.1702m 
 -473.07475m   45.5874n  700.0000m   30.9712m  669.0288m 
 -472.97475m   45.8188n  700.0000m   31.1127m  668.8873m 
 -472.87475m   46.0516n  700.0000m   31.2541m  668.7459m 
 -472.77475m   46.2857n  700.0000m   31.3955m  668.6045m 
 -472.67475m   46.5212n  700.0000m   31.5369m  668.4631m 
 -472.57475m   46.7581n  700.0000m   31.6783m  668.3217m 
 -472.47475m   46.9963n  700.0000m   31.8198m  668.1802m 
 -472.37475m   47.2360n  700.0000m   31.9612m  668.0388m 
 -472.27475m   47.4770n  700.0000m   32.1026m  667.8974m 
 -472.17475m   47.7194n  700.0000m   32.2440m  667.7560m 
 -472.07475m   47.9633n  700.0000m   32.3855m  667.6146m 
 -471.97475m   48.2086n  700.0000m   32.5269m  667.4731m 
 -471.87475m   48.4553n  700.0000m   32.6683m  667.3317m 
 -471.77475m   48.7034n  700.0000m   32.8097m  667.1903m 
 -471.67475m   48.9530n  700.0000m   32.9511m  667.0489m 
 -471.57475m   49.2041n  700.0000m   33.0926m  666.9075m 
 -471.47475m   49.4566n  700.0000m   33.2340m  666.7660m 
 -471.37475m   49.7106n  700.0000m   33.3754m  666.6246m 
 -471.27475m   49.9661n  700.0000m   33.5168m  666.4832m 
 -471.17475m   50.2230n  700.0000m   33.6582m  666.3418m 
 -471.07475m   50.4815n  700.0000m   33.7997m  666.2003m 
 -470.97475m   50.7414n  700.0000m   33.9411m  666.0589m 
 -470.87475m   51.0029n  700.0000m   34.0825m  665.9175m 
 -470.77475m   51.2659n  700.0000m   34.2239m  665.7761m 
 -470.67475m   51.5305n  700.0000m   34.3653m  665.6347m 
 -470.57475m   51.7966n  700.0000m   34.5068m  665.4932m 
 -470.47475m   52.0642n  700.0000m   34.6482m  665.3518m 
 -470.37475m   52.3334n  700.0000m   34.7896m  665.2104m 
 -470.27475m   52.6042n  700.0000m   34.9310m  665.0690m 
 -470.17475m   52.8766n  700.0000m   35.0725m  664.9276m 
 -470.07475m   53.1505n  700.0000m   35.2139m  664.7861m 
 -469.97475m   53.4260n  700.0000m   35.3553m  664.6447m 
 -469.87475m   53.7032n  700.0000m   35.4967m  664.5033m 
 -469.77475m   53.9820n  700.0000m   35.6381m  664.3619m 
 -469.67475m   54.2624n  700.0000m   35.7796m  664.2205m 
 -469.57475m   54.5444n  700.0000m   35.9210m  664.0790m 
 -469.47475m   54.8281n  700.0000m   36.0624m  663.9376m 
 -469.37475m   55.1134n  700.0000m   36.2038m  663.7962m 
 -469.27475m   55.4004n  700.0000m   36.3452m  663.6548m 
 -469.17475m   55.6891n  700.0000m   36.4867m  663.5133m 
 -469.07475m   55.9794n  700.0000m   36.6281m  663.3719m 
 -468.97475m   56.2715n  700.0000m   36.7695m  663.2305m 
 -468.87475m   56.5652n  700.0000m   36.9109m  663.0891m 
 -468.77475m   56.8607n  700.0000m   37.0523m  662.9477m 
 -468.67475m   57.1579n  700.0000m   37.1938m  662.8062m 
 -468.57475m   57.4568n  700.0000m   37.3352m  662.6648m 
 -468.47475m   57.7575n  700.0000m   37.4766m  662.5234m 
 -468.37475m   58.0600n  700.0000m   37.6180m  662.3820m 
 -468.27475m   58.3642n  700.0000m   37.7595m  662.2406m 
 -468.17475m   58.6701n  700.0000m   37.9009m  662.0991m 
 -468.07475m   58.9779n  700.0000m   38.0423m  661.9577m 
 -467.97475m   59.2875n  700.0000m   38.1837m  661.8163m 
 -467.87475m   59.5988n  700.0000m   38.3251m  661.6749m 
 -467.77475m   59.9120n  700.0000m   38.4666m  661.5335m 
 -467.67475m   60.2270n  700.0000m   38.6080m  661.3920m 
 -467.57475m   60.5439n  700.0000m   38.7494m  661.2506m 
 -467.47475m   60.8626n  700.0000m   38.8908m  661.1092m 
 -467.37475m   61.1832n  700.0000m   39.0322m  660.9678m 
 -467.27475m   61.5056n  700.0000m   39.1737m  660.8263m 
 -467.17475m   61.8299n  700.0000m   39.3151m  660.6849m 
 -467.07475m   62.1561n  700.0000m   39.4565m  660.5435m 
 -466.97475m   62.4843n  699.9999m   39.5979m  660.4021m 
 -466.87475m   62.8143n  699.9999m   39.7394m  660.2607m 
 -466.77475m   63.1463n  699.9999m   39.8808m  660.1192m 
 -466.67475m   63.4802n  699.9999m   40.0222m  659.9778m 
 -466.57475m   63.8160n  699.9999m   40.1636m  659.8364m 
 -466.47475m   64.1539n  699.9999m   40.3050m  659.6950m 
 -466.37475m   64.4937n  699.9999m   40.4465m  659.5536m 
 -466.27475m   64.8354n  699.9999m   40.5879m  659.4121m 
 -466.17475m   65.1792n  699.9999m   40.7293m  659.2707m 
 -466.07475m   65.5250n  699.9999m   40.8707m  659.1293m 
 -465.97475m   65.8728n  699.9999m   41.0121m  658.9879m 
 -465.87475m   66.2227n  699.9999m   41.1536m  658.8465m 
 -465.77475m   66.5745n  699.9999m   41.2950m  658.7050m 
 -465.67475m   66.9285n  699.9999m   41.4364m  658.5636m 
 -465.57475m   67.2845n  699.9999m   41.5778m  658.4222m 
 -465.47475m   67.6426n  699.9999m   41.7192m  658.2808m 
 -465.37475m   68.0028n  699.9999m   41.8607m  658.1393m 
 -465.27475m   68.3651n  699.9999m   42.0021m  657.9979m 
 -465.17475m   68.7295n  699.9999m   42.1435m  657.8565m 
 -465.07475m   69.0960n  699.9999m   42.2849m  657.7151m 
 -464.97475m   69.4647n  699.9999m   42.4264m  657.5737m 
 -464.87475m   69.8355n  699.9999m   42.5678m  657.4322m 
 -464.77475m   70.2085n  699.9999m   42.7092m  657.2908m 
 -464.67475m   70.5837n  699.9999m   42.8506m  657.1494m 
 -464.57475m   70.9611n  699.9999m   42.9920m  657.0080m 
 -464.47475m   71.3407n  699.9999m   43.1335m  656.8666m 
 -464.37475m   71.7225n  699.9999m   43.2749m  656.7251m 
 -464.27475m   72.1065n  699.9999m   43.4163m  656.5837m 
 -464.17475m   72.4928n  699.9999m   43.5577m  656.4423m 
 -464.07475m   72.8813n  699.9999m   43.6991m  656.3009m 
 -463.97475m   73.2721n  699.9999m   43.8406m  656.1595m 
 -463.87475m   73.6652n  699.9999m   43.9820m  656.0180m 
 -463.77475m   74.0606n  699.9999m   44.1234m  655.8766m 
 -463.67475m   74.4583n  699.9999m   44.2648m  655.7352m 
 -463.57475m   74.8584n  699.9999m   44.4062m  655.5938m 
 -463.47475m   75.2608n  699.9999m   44.5477m  655.4523m 
 -463.37475m   75.6655n  699.9999m   44.6891m  655.3109m 
 -463.27475m   76.0726n  699.9999m   44.8305m  655.1695m 
 -463.17475m   76.4821n  699.9999m   44.9719m  655.0281m 
 -463.07475m   76.8939n  699.9999m   45.1134m  654.8867m 
 -462.97475m   77.3082n  699.9999m   45.2548m  654.7452m 
 -462.87475m   77.7249n  699.9999m   45.3962m  654.6038m 
 -462.77475m   78.1441n  699.9999m   45.5376m  654.4624m 
 -462.67475m   78.5657n  699.9999m   45.6790m  654.3210m 
 -462.57475m   78.9898n  699.9999m   45.8205m  654.1796m 
 -462.47475m   79.4163n  699.9999m   45.9619m  654.0381m 
 -462.37475m   79.8453n  699.9999m   46.1033m  653.8967m 
 -462.27475m   80.2769n  699.9999m   46.2447m  653.7553m 
 -462.17475m   80.7110n  699.9999m   46.3861m  653.6139m 
 -462.07475m   81.1476n  699.9999m   46.5276m  653.4725m 
 -461.97475m   81.5868n  699.9999m   46.6690m  653.3310m 
 -461.87475m   82.0285n  699.9999m   46.8104m  653.1896m 
 -461.77475m   82.4729n  699.9999m   46.9518m  653.0482m 
 -461.67475m   82.9198n  699.9999m   47.0932m  652.9068m 
 -461.57475m   83.3694n  699.9999m   47.2347m  652.7654m 
 -461.47475m   83.8215n  699.9999m   47.3761m  652.6239m 
 -461.37475m   84.2764n  699.9999m   47.5175m  652.4825m 
 -461.27475m   84.7339n  699.9999m   47.6589m  652.3411m 
 -461.17475m   85.1940n  699.9999m   47.8004m  652.1997m 
 -461.07475m   85.6569n  699.9999m   47.9418m  652.0582m 
 -460.97475m   86.1225n  699.9999m   48.0832m  651.9168m 
 -460.87475m   86.5908n  699.9999m   48.2246m  651.7754m 
 -460.77475m   87.0618n  699.9999m   48.3660m  651.6340m 
 -460.67475m   87.5356n  699.9999m   48.5075m  651.4926m 
 -460.57475m   88.0122n  699.9999m   48.6489m  651.3511m 
 -460.47475m   88.4916n  699.9999m   48.7903m  651.2097m 
 -460.37475m   88.9738n  699.9999m   48.9317m  651.0683m 
 -460.27475m   89.4588n  699.9999m   49.0731m  650.9269m 
 -460.17475m   89.9466n  699.9999m   49.2146m  650.7855m 
 -460.07475m   90.4373n  699.9999m   49.3560m  650.6440m 
 -459.97475m   90.9309n  699.9999m   49.4974m  650.5026m 
 -459.87475m   91.4274n  699.9999m   49.6388m  650.3612m 
 -459.77475m   91.9268n  699.9999m   49.7802m  650.2198m 
 -459.67475m   92.4291n  699.9999m   49.9217m  650.0784m 
 -459.57475m   92.9343n  699.9999m   50.0631m  649.9369m 
 -459.47475m   93.4425n  699.9999m   50.2045m  649.7955m 
 -459.37475m   93.9537n  699.9999m   50.3459m  649.6541m 
 -459.27475m   94.4679n  699.9999m   50.4874m  649.5127m 
 -459.17475m   94.9851n  699.9999m   50.6288m  649.3712m 
 -459.07475m   95.5053n  699.9999m   50.7702m  649.2298m 
 -458.97475m   96.0286n  699.9999m   50.9116m  649.0884m 
 -458.87475m   96.5549n  699.9999m   51.0530m  648.9470m 
 -458.77475m   97.0844n  699.9999m   51.1945m  648.8056m 
 -458.67475m   97.6169n  699.9999m   51.3359m  648.6641m 
 -458.57475m   98.1525n  699.9999m   51.4773m  648.5227m 
 -458.47475m   98.6913n  699.9999m   51.6187m  648.3813m 
 -458.37475m   99.2333n  699.9999m   51.7601m  648.2399m 
 -458.27475m   99.7784n  699.9999m   51.9016m  648.0985m 
 -458.17475m  100.3268n  699.9999m   52.0430m  647.9570m 
 -458.07475m  100.8783n  699.9999m   52.1844m  647.8156m 
 -457.97475m  101.4331n  699.9999m   52.3258m  647.6742m 
 -457.87475m  101.9911n  699.9999m   52.4672m  647.5328m 
 -457.77475m  102.5524n  699.9999m   52.6087m  647.3914m 
 -457.67475m  103.1170n  699.9999m   52.7501m  647.2499m 
 -457.57475m  103.6849n  699.9999m   52.8915m  647.1085m 
 -457.47475m  104.2561n  699.9999m   53.0329m  646.9671m 
 -457.37475m  104.8307n  699.9999m   53.1743m  646.8257m 
 -457.27475m  105.4087n  699.9999m   53.3158m  646.6843m 
 -457.17475m  105.9900n  699.9999m   53.4572m  646.5428m 
 -457.07475m  106.5748n  699.9999m   53.5986m  646.4014m 
 -456.97475m  107.1630n  699.9999m   53.7400m  646.2600m 
 -456.87475m  107.7546n  699.9999m   53.8815m  646.1186m 
 -456.77475m  108.3497n  699.9999m   54.0229m  645.9772m 
 -456.67475m  108.9483n  699.9999m   54.1643m  645.8357m 
 -456.57475m  109.5505n  699.9999m   54.3057m  645.6943m 
 -456.47475m  110.1561n  699.9999m   54.4471m  645.5529m 
 -456.37475m  110.7653n  699.9999m   54.5886m  645.4115m 
 -456.27475m  111.3781n  699.9999m   54.7300m  645.2700m 
 -456.17475m  111.9945n  699.9999m   54.8714m  645.1286m 
 -456.07475m  112.6145n  699.9999m   55.0128m  644.9872m 
 -455.97475m  113.2381n  699.9999m   55.1542m  644.8458m 
 -455.87475m  113.8654n  699.9999m   55.2957m  644.7044m 
 -455.77475m  114.4964n  699.9999m   55.4371m  644.5629m 
 -455.67475m  115.1310n  699.9999m   55.5785m  644.4215m 
 -455.57475m  115.7694n  699.9999m   55.7199m  644.2801m 
 -455.47475m  116.4116n  699.9999m   55.8613m  644.1387m 
 -455.37475m  117.0575n  699.9999m   56.0028m  643.9973m 
 -455.27475m  117.7072n  699.9999m   56.1442m  643.8558m 
 -455.17475m  118.3608n  699.9999m   56.2856m  643.7144m 
 -455.07475m  119.0181n  699.9999m   56.4270m  643.5730m 
 -454.97475m  119.6794n  699.9999m   56.5684m  643.4316m 
 -454.87475m  120.3445n  699.9999m   56.7099m  643.2902m 
 -454.77475m  121.0135n  699.9999m   56.8513m  643.1487m 
 -454.67475m  121.6865n  699.9999m   56.9927m  643.0073m 
 -454.57475m  122.3634n  699.9999m   57.1341m  642.8659m 
 -454.47475m  123.0443n  699.9999m   57.2756m  642.7245m 
 -454.37475m  123.7291n  699.9999m   57.4170m  642.5831m 
 -454.27475m  124.4180n  699.9999m   57.5584m  642.4416m 
 -454.17475m  125.1110n  699.9999m   57.6998m  642.3002m 
 -454.07475m  125.8080n  699.9999m   57.8412m  642.1588m 
 -453.97475m  126.5091n  699.9999m   57.9827m  642.0174m 
 -453.87475m  127.2144n  699.9999m   58.1241m  641.8759m 
 -453.77475m  127.9238n  699.9999m   58.2655m  641.7345m 
 -453.67475m  128.6373n  699.9999m   58.4069m  641.5931m 
 -453.57475m  129.3551n  699.9999m   58.5483m  641.4517m 
 -453.47475m  130.0770n  699.9999m   58.6898m  641.3103m 
 -453.37475m  130.8032n  699.9999m   58.8312m  641.1688m 
 -453.27475m  131.5337n  699.9999m   58.9726m  641.0274m 
 -453.17475m  132.2685n  699.9999m   59.1140m  640.8860m 
 -453.07475m  133.0076n  699.9999m   59.2554m  640.7446m 
 -452.97475m  133.7510n  699.9999m   59.3969m  640.6032m 
 -452.87475m  134.4988n  699.9999m   59.5383m  640.4617m 
 -452.77475m  135.2510n  699.9999m   59.6797m  640.3203m 
 -452.67475m  136.0076n  699.9999m   59.8211m  640.1789m 
 -452.57475m  136.7687n  699.9999m   59.9625m  640.0375m 
 -452.47475m  137.5343n  699.9999m   60.1040m  639.8961m 
 -452.37475m  138.3043n  699.9999m   60.2454m  639.7546m 
 -452.27475m  139.0789n  699.9999m   60.3868m  639.6132m 
 -452.17475m  139.8580n  699.9999m   60.5282m  639.4718m 
 -452.07475m  140.6417n  699.9999m   60.6697m  639.3304m 
 -451.97475m  141.4301n  699.9999m   60.8111m  639.1890m 
 -451.87475m  142.2230n  699.9999m   60.9525m  639.0475m 
 -451.77475m  143.0207n  699.9999m   61.0939m  638.9061m 
 -451.67475m  143.8230n  699.9999m   61.2353m  638.7647m 
 -451.57475m  144.6300n  699.9999m   61.3768m  638.6233m 
 -451.47475m  145.4418n  699.9999m   61.5182m  638.4819m 
 -451.37475m  146.2584n  699.9999m   61.6596m  638.3404m 
 -451.27475m  147.0798n  699.9999m   61.8010m  638.1990m 
 -451.17475m  147.9060n  699.9999m   61.9424m  638.0576m 
 -451.07475m  148.7371n  699.9999m   62.0839m  637.9162m 
 -450.97475m  149.5730n  699.9999m   62.2253m  637.7748m 
 -450.87475m  150.4139n  699.9999m   62.3667m  637.6333m 
 -450.77475m  151.2597n  699.9999m   62.5081m  637.4919m 
 -450.67475m  152.1105n  699.9999m   62.6495m  637.3505m 
 -450.57475m  152.9664n  699.9999m   62.7910m  637.2091m 
 -450.47475m  153.8272n  699.9999m   62.9324m  637.0677m 
 -450.37475m  154.6931n  699.9999m   63.0738m  636.9262m 
 -450.27475m  155.5642n  699.9999m   63.2152m  636.7848m 
 -450.17475m  156.4403n  699.9999m   63.3566m  636.6434m 
 -450.07475m  157.3216n  699.9999m   63.4981m  636.5020m 
 -449.97475m  158.2081n  699.9999m   63.6395m  636.3605m 
 -449.87475m  159.0999n  699.9999m   63.7809m  636.2191m 
 -449.77475m  159.9968n  699.9999m   63.9223m  636.0777m 
 -449.67475m  160.8991n  699.9999m   64.0638m  635.9363m 
 -449.57475m  161.8067n  699.9999m   64.2052m  635.7949m 
 -449.47475m  162.7196n  699.9999m   64.3466m  635.6534m 
 -449.37475m  163.6379n  699.9999m   64.4880m  635.5120m 
 -449.27475m  164.5616n  699.9999m   64.6294m  635.3706m 
 -449.17475m  165.4907n  699.9999m   64.7709m  635.2292m 
 -449.07475m  166.4253n  699.9999m   64.9123m  635.0878m 
 -448.97475m  167.3655n  699.9999m   65.0537m  634.9463m 
 -448.87475m  168.3111n  699.9999m   65.1951m  634.8049m 
 -448.77475m  169.2624n  699.9999m   65.3365m  634.6635m 
 -448.67475m  170.2192n  699.9999m   65.4780m  634.5221m 
 -448.57475m  171.1817n  699.9999m   65.6194m  634.3807m 
 -448.47475m  172.1499n  699.9999m   65.7608m  634.2392m 
 -448.37475m  173.1237n  699.9999m   65.9022m  634.0978m 
 -448.27475m  174.1033n  699.9999m   66.0436m  633.9564m 
 -448.17475m  175.0887n  699.9999m   66.1851m  633.8150m 
 -448.07475m  176.0799n  699.9999m   66.3265m  633.6736m 
 -447.97475m  177.0769n  699.9999m   66.4679m  633.5321m 
 -447.87475m  178.0799n  699.9999m   66.6093m  633.3907m 
 -447.77475m  179.0887n  699.9999m   66.7507m  633.2493m 
 -447.67475m  180.1035n  699.9999m   66.8922m  633.1079m 
 -447.57475m  181.1242n  699.9999m   67.0336m  632.9665m 
 -447.47475m  182.1510n  699.9999m   67.1750m  632.8250m 
 -447.37475m  183.1838n  699.9999m   67.3164m  632.6836m 
 -447.27475m  184.2227n  699.9999m   67.4578m  632.5422m 
 -447.17475m  185.2678n  699.9999m   67.5993m  632.4008m 
 -447.07475m  186.3190n  699.9999m   67.7407m  632.2594m 
 -446.97475m  187.3764n  699.9999m   67.8821m  632.1179m 
 -446.87475m  188.4401n  699.9999m   68.0235m  631.9765m 
 -446.77475m  189.5100n  699.9999m   68.1649m  631.8351m 
 -446.67475m  190.5863n  699.9999m   68.3064m  631.6937m 
 -446.57475m  191.6689n  699.9999m   68.4478m  631.5523m 
 -446.47475m  192.7578n  699.9999m   68.5892m  631.4108m 
 -446.37475m  193.8532n  699.9999m   68.7306m  631.2694m 
 -446.27475m  194.9551n  699.9999m   68.8721m  631.1280m 
 -446.17475m  196.0635n  699.9999m   69.0135m  630.9866m 
 -446.07475m  197.1784n  699.9999m   69.1549m  630.8452m 
 -445.97475m  198.2999n  699.9998m   69.2963m  630.7037m 
 -445.87475m  199.4280n  699.9998m   69.4377m  630.5623m 
 -445.77475m  200.5628n  699.9998m   69.5792m  630.4209m 
 -445.67475m  201.7043n  699.9998m   69.7206m  630.2795m 
 -445.57475m  202.8525n  699.9998m   69.8620m  630.1381m 
 -445.47475m  204.0075n  699.9998m   70.0034m  629.9966m 
 -445.37475m  205.1693n  699.9998m   70.1448m  629.8552m 
 -445.27475m  206.3380n  699.9998m   70.2863m  629.7138m 
 -445.17475m  207.5136n  699.9998m   70.4277m  629.5724m 
 -445.07475m  208.6961n  699.9998m   70.5691m  629.4310m 
 -444.97475m  209.8856n  699.9998m   70.7105m  629.2895m 
 -444.87475m  211.0821n  699.9998m   70.8519m  629.1481m 
 -444.77475m  212.2857n  699.9998m   70.9934m  629.0067m 
 -444.67475m  213.4964n  699.9998m   71.1348m  628.8653m 
 -444.57475m  214.7143n  699.9998m   71.2762m  628.7239m 
 -444.47475m  215.9393n  699.9998m   71.4176m  628.5824m 
 -444.37475m  217.1716n  699.9998m   71.5590m  628.4410m 
 -444.27475m  218.4112n  699.9998m   71.7005m  628.2996m 
 -444.17475m  219.6581n  699.9998m   71.8419m  628.1582m 
 -444.07475m  220.9124n  699.9998m   71.9833m  628.0168m 
 -443.97475m  222.1741n  699.9998m   72.1247m  627.8753m 
 -443.87475m  223.4432n  699.9998m   72.2661m  627.7339m 
 -443.77475m  224.7198n  699.9998m   72.4076m  627.5925m 
 -443.67475m  226.0040n  699.9998m   72.5490m  627.4511m 
 -443.57475m  227.2958n  699.9998m   72.6904m  627.3097m 
 -443.47475m  228.5952n  699.9998m   72.8318m  627.1682m 
 -443.37475m  229.9023n  699.9998m   72.9732m  627.0268m 
 -443.27475m  231.2171n  699.9998m   73.1147m  626.8854m 
 -443.17475m  232.5397n  699.9998m   73.2561m  626.7440m 
 -443.07475m  233.8702n  699.9998m   73.3975m  626.6025m 
 -442.97475m  235.2084n  699.9998m   73.5389m  626.4611m 
 -442.87475m  236.5546n  699.9998m   73.6803m  626.3197m 
 -442.77475m  237.9088n  699.9998m   73.8218m  626.1783m 
 -442.67475m  239.2710n  699.9998m   73.9632m  626.0369m 
 -442.57475m  240.6412n  699.9998m   74.1046m  625.8954m 
 -442.47475m  242.0195n  699.9998m   74.2460m  625.7540m 
 -442.37475m  243.4060n  699.9998m   74.3874m  625.6126m 
 -442.27475m  244.8007n  699.9998m   74.5289m  625.4712m 
 -442.17475m  246.2036n  699.9998m   74.6703m  625.3298m 
 -442.07475m  247.6149n  699.9998m   74.8117m  625.1884m 
 -441.97475m  249.0345n  699.9998m   74.9531m  625.0469m 
 -441.87475m  250.4625n  699.9998m   75.0946m  624.9055m 
 -441.77475m  251.8989n  699.9998m   75.2360m  624.7641m 
 -441.67475m  253.3439n  699.9998m   75.3774m  624.6227m 
 -441.57475m  254.7974n  699.9998m   75.5188m  624.4813m 
 -441.47475m  256.2595n  699.9998m   75.6602m  624.3398m 
 -441.37475m  257.7302n  699.9998m   75.8017m  624.1984m 
 -441.27475m  259.2097n  699.9998m   75.9431m  624.0570m 
 -441.17475m  260.6979n  699.9998m   76.0845m  623.9156m 
 -441.07475m  262.1949n  699.9998m   76.2259m  623.7742m 
 -440.97475m  263.7008n  699.9998m   76.3673m  623.6327m 
 -440.87475m  265.2156n  699.9998m   76.5088m  623.4913m 
 -440.77475m  266.7394n  699.9998m   76.6502m  623.3499m 
 -440.67475m  268.2722n  699.9998m   76.7916m  623.2085m 
 -440.57475m  269.8141n  699.9998m   76.9330m  623.0671m 
 -440.47475m  271.3651n  699.9998m   77.0744m  622.9256m 
 -440.37475m  272.9254n  699.9998m   77.2159m  622.7842m 
 -440.27475m  274.4948n  699.9998m   77.3573m  622.6428m 
 -440.17475m  276.0735n  699.9998m   77.4987m  622.5014m 
 -440.07475m  277.6616n  699.9998m   77.6401m  622.3600m 
 -439.97475m  279.2592n  699.9998m   77.7815m  622.2185m 
 -439.87475m  280.8661n  699.9998m   77.9230m  622.0771m 
 -439.77475m  282.4826n  699.9998m   78.0644m  621.9357m 
 -439.67475m  284.1087n  699.9998m   78.2058m  621.7943m 
 -439.57475m  285.7444n  699.9998m   78.3472m  621.6529m 
 -439.47475m  287.3898n  699.9998m   78.4886m  621.5114m 
 -439.37475m  289.0450n  699.9998m   78.6301m  621.3700m 
 -439.27475m  290.7100n  699.9998m   78.7715m  621.2286m 
 -439.17475m  292.3848n  699.9998m   78.9129m  621.0872m 
 -439.07475m  294.0696n  699.9998m   79.0543m  620.9458m 
 -438.97475m  295.7643n  699.9998m   79.1957m  620.8043m 
 -438.87475m  297.4691n  699.9998m   79.3372m  620.6629m 
 -438.77475m  299.1840n  699.9998m   79.4786m  620.5215m 
 -438.67475m  300.9091n  699.9998m   79.6200m  620.3801m 
 -438.57475m  302.6444n  699.9998m   79.7614m  620.2387m 
 -438.47475m  304.3901n  699.9998m   79.9028m  620.0972m 
 -438.37475m  306.1460n  699.9998m   80.0443m  619.9558m 
 -438.27475m  307.9124n  699.9998m   80.1857m  619.8144m 
 -438.17475m  309.6892n  699.9998m   80.3271m  619.6730m 
 -438.07475m  311.4766n  699.9998m   80.4685m  619.5316m 
 -437.97475m  313.2746n  699.9998m   80.6099m  619.3901m 
 -437.87475m  315.0833n  699.9998m   80.7514m  619.2487m 
 -437.77475m  316.9027n  699.9998m   80.8928m  619.1073m 
 -437.67475m  318.7329n  699.9998m   81.0342m  618.9659m 
 -437.57475m  320.5740n  699.9998m   81.1756m  618.8245m 
 -437.47475m  322.4259n  699.9998m   81.3170m  618.6830m 
 -437.37475m  324.2889n  699.9998m   81.4585m  618.5416m 
 -437.27475m  326.1629n  699.9998m   81.5999m  618.4002m 
 -437.17475m  328.0481n  699.9998m   81.7413m  618.2588m 
 -437.07475m  329.9444n  699.9998m   81.8827m  618.1174m 
 -436.97475m  331.8520n  699.9998m   82.0241m  617.9759m 
 -436.87475m  333.7710n  699.9998m   82.1656m  617.8345m 
 -436.77475m  335.7013n  699.9997m   82.3070m  617.6931m 
 -436.67475m  337.6431n  699.9997m   82.4484m  617.5517m 
 -436.57475m  339.5964n  699.9997m   82.5898m  617.4103m 
 -436.47475m  341.5613n  699.9997m   82.7312m  617.2688m 
 -436.37475m  343.5379n  699.9997m   82.8727m  617.1274m 
 -436.27475m  345.5262n  699.9997m   83.0141m  616.9860m 
 -436.17475m  347.5264n  699.9997m   83.1555m  616.8446m 
 -436.07475m  349.5384n  699.9997m   83.2969m  616.7032m 
 -435.97475m  351.5624n  699.9997m   83.4383m  616.5618m 
 -435.87475m  353.5983n  699.9997m   83.5798m  616.4203m 
 -435.77475m  355.6464n  699.9997m   83.7212m  616.2789m 
 -435.67475m  357.7067n  699.9997m   83.8626m  616.1375m 
 -435.57475m  359.7792n  699.9997m   84.0040m  615.9961m 
 -435.47475m  361.8640n  699.9997m   84.1454m  615.8547m 
 -435.37475m  363.9612n  699.9997m   84.2869m  615.7132m 
 -435.27475m  366.0709n  699.9997m   84.4283m  615.5718m 
 -435.17475m  368.1931n  699.9997m   84.5697m  615.4304m 
 -435.07475m  370.3280n  699.9997m   84.7111m  615.2890m 
 -434.97475m  372.4755n  699.9997m   84.8525m  615.1476m 
 -434.87475m  374.6358n  699.9997m   84.9940m  615.0061m 
 -434.77475m  376.8089n  699.9997m   85.1354m  614.8647m 
 -434.67475m  378.9950n  699.9997m   85.2768m  614.7233m 
 -434.57475m  381.1940n  699.9997m   85.4182m  614.5819m 
 -434.47475m  383.4062n  699.9997m   85.5596m  614.4405m 
 -434.37475m  385.6315n  699.9997m   85.7011m  614.2990m 
 -434.27475m  387.8700n  699.9997m   85.8425m  614.1576m 
 -434.17475m  390.1218n  699.9997m   85.9839m  614.0162m 
 -434.07475m  392.3871n  699.9997m   86.1253m  613.8748m 
 -433.97475m  394.6658n  699.9997m   86.2667m  613.7334m 
 -433.87475m  396.9580n  699.9997m   86.4082m  613.5919m 
 -433.77475m  399.2639n  699.9997m   86.5496m  613.4505m 
 -433.67475m  401.5836n  699.9997m   86.6910m  613.3091m 
 -433.57475m  403.9170n  699.9997m   86.8324m  613.1677m 
 -433.47475m  406.2643n  699.9997m   86.9738m  613.0263m 
 -433.37475m  408.6256n  699.9997m   87.1153m  612.8849m 
 -433.27475m  411.0009n  699.9997m   87.2567m  612.7434m 
 -433.17475m  413.3904n  699.9997m   87.3981m  612.6020m 
 -433.07475m  415.7941n  699.9997m   87.5395m  612.4606m 
 -432.97475m  418.2121n  699.9997m   87.6809m  612.3192m 
 -432.87475m  420.6446n  699.9997m   87.8224m  612.1778m 
 -432.77475m  423.0914n  699.9997m   87.9638m  612.0363m 
 -432.67475m  425.5529n  699.9997m   88.1052m  611.8949m 
 -432.57475m  428.0290n  699.9997m   88.2466m  611.7535m 
 -432.47475m  430.5199n  699.9997m   88.3880m  611.6121m 
 -432.37475m  433.0256n  699.9997m   88.5294m  611.4707m 
 -432.27475m  435.5462n  699.9997m   88.6709m  611.3292m 
 -432.17475m  438.0819n  699.9997m   88.8123m  611.1878m 
 -432.07475m  440.6326n  699.9997m   88.9537m  611.0464m 
 -431.97475m  443.1985n  699.9997m   89.0951m  610.9050m 
 -431.87475m  445.7798n  699.9997m   89.2365m  610.7636m 
 -431.77475m  448.3764n  699.9997m   89.3780m  610.6222m 
 -431.67475m  450.9884n  699.9997m   89.5194m  610.4807m 
 -431.57475m  453.6161n  699.9997m   89.6608m  610.3393m 
 -431.47475m  456.2594n  699.9997m   89.8022m  610.1979m 
 -431.37475m  458.9184n  699.9997m   89.9436m  610.0565m 
 -431.27475m  461.5934n  699.9997m   90.0851m  609.9151m 
 -431.17475m  464.2842n  699.9997m   90.2265m  609.7736m 
 -431.07475m  466.9911n  699.9997m   90.3679m  609.6322m 
 -430.97475m  469.7141n  699.9997m   90.5093m  609.4908m 
 -430.87475m  472.4534n  699.9997m   90.6507m  609.3494m 
 -430.77475m  475.2090n  699.9996m   90.7922m  609.2080m 
 -430.67475m  477.9810n  699.9996m   90.9336m  609.0665m 
 -430.57475m  480.7696n  699.9996m   91.0750m  608.9251m 
 -430.47475m  483.5748n  699.9996m   91.2164m  608.7837m 
 -430.37475m  486.3967n  699.9996m   91.3578m  608.6423m 
 -430.27475m  489.2354n  699.9996m   91.4993m  608.5009m 
 -430.17475m  492.0911n  699.9996m   91.6407m  608.3595m 
 -430.07475m  494.9638n  699.9996m   91.7821m  608.2180m 
 -429.97475m  497.8537n  699.9996m   91.9235m  608.0766m 
 -429.87475m  500.7608n  699.9996m   92.0649m  607.9352m 
 -429.77475m  503.6852n  699.9996m   92.2064m  607.7938m 
 -429.67475m  506.6271n  699.9996m   92.3478m  607.6524m 
 -429.57475m  509.5866n  699.9996m   92.4892m  607.5109m 
 -429.47475m  512.5637n  699.9996m   92.6306m  607.3695m 
 -429.37475m  515.5586n  699.9996m   92.7720m  607.2281m 
 -429.27475m  518.5714n  699.9996m   92.9134m  607.0867m 
 -429.17475m  521.6021n  699.9996m   93.0549m  606.9453m 
 -429.07475m  524.6510n  699.9996m   93.1963m  606.8039m 
 -428.97475m  527.7180n  699.9996m   93.3377m  606.6624m 
 -428.87475m  530.8034n  699.9996m   93.4791m  606.5210m 
 -428.77475m  533.9071n  699.9996m   93.6205m  606.3796m 
 -428.67475m  537.0295n  699.9996m   93.7620m  606.2382m 
 -428.57475m  540.1704n  699.9996m   93.9034m  606.0968m 
 -428.47475m  543.3301n  699.9996m   94.0448m  605.9553m 
 -428.37475m  546.5087n  699.9996m   94.1862m  605.8139m 
 -428.27475m  549.7063n  699.9996m   94.3276m  605.6725m 
 -428.17475m  552.9230n  699.9996m   94.4691m  605.5311m 
 -428.07475m  556.1589n  699.9996m   94.6105m  605.3897m 
 -427.97475m  559.4141n  699.9996m   94.7519m  605.2483m 
 -427.87475m  562.6888n  699.9996m   94.8933m  605.1068m 
 -427.77475m  565.9831n  699.9996m   95.0347m  604.9654m 
 -427.67475m  569.2970n  699.9996m   95.1762m  604.8240m 
 -427.57475m  572.6308n  699.9996m   95.3176m  604.6826m 
 -427.47475m  575.9844n  699.9996m   95.4590m  604.5412m 
 -427.37475m  579.3582n  699.9996m   95.6004m  604.3997m 
 -427.27475m  582.7520n  699.9996m   95.7418m  604.2583m 
 -427.17475m  586.1662n  699.9996m   95.8833m  604.1169m 
 -427.07475m  589.6008n  699.9996m   96.0247m  603.9755m 
 -426.97475m  593.0559n  699.9996m   96.1661m  603.8341m 
 -426.87475m  596.5317n  699.9996m   96.3075m  603.6927m 
 -426.77475m  600.0283n  699.9996m   96.4489m  603.5512m 
 -426.67475m  603.5458n  699.9996m   96.5903m  603.4098m 
 -426.57475m  607.0843n  699.9996m   96.7318m  603.2684m 
 -426.47475m  610.6440n  699.9996m   96.8732m  603.1270m 
 -426.37475m  614.2250n  699.9996m   97.0146m  602.9856m 
 -426.27475m  617.8274n  699.9995m   97.1560m  602.8441m 
 -426.17475m  621.4513n  699.9995m   97.2974m  602.7027m 
 -426.07475m  625.0970n  699.9995m   97.4389m  602.5613m 
 -425.97475m  628.7644n  699.9995m   97.5803m  602.4199m 
 -425.87475m  632.4538n  699.9995m   97.7217m  602.2785m 
 -425.77475m  636.1653n  699.9995m   97.8631m  602.1371m 
 -425.67475m  639.8990n  699.9995m   98.0045m  601.9956m 
 -425.57475m  643.6550n  699.9995m   98.1460m  601.8542m 
 -425.47475m  647.4336n  699.9995m   98.2874m  601.7128m 
 -425.37475m  651.2347n  699.9995m   98.4288m  601.5714m 
 -425.27475m  655.0586n  699.9995m   98.5702m  601.4300m 
 -425.17475m  658.9054n  699.9995m   98.7116m  601.2886m 
 -425.07475m  662.7752n  699.9995m   98.8530m  601.1471m 
 -424.97475m  666.6683n  699.9995m   98.9945m  601.0057m 
 -424.87475m  670.5846n  699.9995m   99.1359m  600.8643m 
 -424.77475m  674.5244n  699.9995m   99.2773m  600.7229m 
 -424.67475m  678.4877n  699.9995m   99.4187m  600.5815m 
 -424.57475m  682.4748n  699.9995m   99.5601m  600.4400m 
 -424.47475m  686.4858n  699.9995m   99.7016m  600.2986m 
 -424.37475m  690.5209n  699.9995m   99.8430m  600.1572m 
 -424.27475m  694.5801n  699.9995m   99.9844m  600.0158m 
 -424.17475m  698.6636n  699.9995m  100.1258m  599.8744m 
 -424.07475m  702.7716n  699.9995m  100.2672m  599.7330m 
 -423.97475m  706.9042n  699.9995m  100.4086m  599.5915m 
 -423.87475m  711.0616n  699.9995m  100.5501m  599.4501m 
 -423.77475m  715.2439n  699.9995m  100.6915m  599.3087m 
 -423.67475m  719.4513n  699.9995m  100.8329m  599.1673m 
 -423.57475m  723.6839n  699.9995m  100.9743m  599.0259m 
 -423.47475m  727.9419n  699.9995m  101.1157m  598.8845m 
 -423.37475m  732.2254n  699.9995m  101.2572m  598.7430m 
 -423.27475m  736.5346n  699.9995m  101.3986m  598.6016m 
 -423.17475m  740.8696n  699.9995m  101.5400m  598.4602m 
 -423.07475m  745.2306n  699.9995m  101.6814m  598.3188m 
 -422.97475m  749.6178n  699.9995m  101.8228m  598.1774m 
 -422.87475m  754.0313n  699.9995m  101.9643m  598.0360m 
 -422.77475m  758.4713n  699.9994m  102.1057m  597.8945m 
 -422.67475m  762.9379n  699.9994m  102.2471m  597.7531m 
 -422.57475m  767.4313n  699.9994m  102.3885m  597.6117m 
 -422.47475m  771.9516n  699.9994m  102.5299m  597.4703m 
 -422.37475m  776.4991n  699.9994m  102.6713m  597.3289m 
 -422.27475m  781.0739n  699.9994m  102.8128m  597.1875m 
 -422.17475m  785.6761n  699.9994m  102.9542m  597.0460m 
 -422.07475m  790.3060n  699.9994m  103.0956m  596.9046m 
 -421.97475m  794.9636n  699.9994m  103.2370m  596.7632m 
 -421.87475m  799.6492n  699.9994m  103.3784m  596.6218m 
 -421.77475m  804.3630n  699.9994m  103.5198m  596.4804m 
 -421.67475m  809.1050n  699.9994m  103.6613m  596.3390m 
 -421.57475m  813.8755n  699.9994m  103.8027m  596.1975m 
 -421.47475m  818.6746n  699.9994m  103.9441m  596.0561m 
 -421.37475m  823.5026n  699.9994m  104.0855m  595.9147m 
 -421.27475m  828.3596n  699.9994m  104.2269m  595.7733m 
 -421.17475m  833.2457n  699.9994m  104.3684m  595.6319m 
 -421.07475m  838.1612n  699.9994m  104.5098m  595.4905m 
 -420.97475m  843.1062n  699.9994m  104.6512m  595.3490m 
 -420.87475m  848.0809n  699.9994m  104.7926m  595.2076m 
 -420.77475m  853.0855n  699.9994m  104.9340m  595.0662m 
 -420.67475m  858.1201n  699.9994m  105.0754m  594.9248m 
 -420.57475m  863.1851n  699.9994m  105.2169m  594.7834m 
 -420.47475m  868.2804n  699.9994m  105.3583m  594.6420m 
 -420.37475m  873.4064n  699.9994m  105.4997m  594.5005m 
 -420.27475m  878.5632n  699.9994m  105.6411m  594.3591m 
 -420.17475m  883.7510n  699.9994m  105.7825m  594.2177m 
 -420.07475m  888.9700n  699.9994m  105.9240m  594.0763m 
 -419.97475m  894.2203n  699.9994m  106.0654m  593.9349m 
 -419.87475m  899.5022n  699.9994m  106.2068m  593.7935m 
 -419.77475m  904.8159n  699.9993m  106.3482m  593.6520m 
 -419.67475m  910.1615n  699.9993m  106.4896m  593.5106m 
 -419.57475m  915.5393n  699.9993m  106.6310m  593.3692m 
 -419.47475m  920.9494n  699.9993m  106.7725m  593.2278m 
 -419.37475m  926.3921n  699.9993m  106.9139m  593.0864m 
 -419.27475m  931.8675n  699.9993m  107.0553m  592.9450m 
 -419.17475m  937.3758n  699.9993m  107.1967m  592.8035m 
 -419.07475m  942.9173n  699.9993m  107.3381m  592.6621m 
 -418.97475m  948.4921n  699.9993m  107.4795m  592.5207m 
 -418.87475m  954.1004n  699.9993m  107.6210m  592.3793m 
 -418.77475m  959.7425n  699.9993m  107.7624m  592.2379m 
 -418.67475m  965.4186n  699.9993m  107.9038m  592.0965m 
 -418.57475m  971.1288n  699.9993m  108.0452m  591.9551m 
 -418.47475m  976.8734n  699.9993m  108.1866m  591.8136m 
 -418.37475m  982.6526n  699.9993m  108.3281m  591.6722m 
 -418.27475m  988.4665n  699.9993m  108.4695m  591.5308m 
 -418.17475m  994.3155n  699.9993m  108.6109m  591.3894m 
 -418.07475m    1.0002u  699.9993m  108.7523m  591.2480m 
 -417.97475m    1.0061u  699.9993m  108.8937m  591.1066m 
 -417.87475m    1.0121u  699.9993m  109.0351m  590.9651m 
 -417.77475m    1.0181u  699.9993m  109.1766m  590.8237m 
 -417.67475m    1.0241u  699.9993m  109.3180m  590.6823m 
 -417.57475m    1.0302u  699.9993m  109.4594m  590.5409m 
 -417.47475m    1.0363u  699.9993m  109.6008m  590.3995m 
 -417.37475m    1.0424u  699.9993m  109.7422m  590.2581m 
 -417.27475m    1.0486u  699.9992m  109.8836m  590.1167m 
 -417.17475m    1.0548u  699.9992m  110.0251m  589.9752m 
 -417.07475m    1.0610u  699.9992m  110.1665m  589.8338m 
 -416.97475m    1.0673u  699.9992m  110.3079m  589.6924m 
 -416.87475m    1.0736u  699.9992m  110.4493m  589.5510m 
 -416.77475m    1.0800u  699.9992m  110.5907m  589.4096m 
 -416.67475m    1.0864u  699.9992m  110.7321m  589.2682m 
 -416.57475m    1.0928u  699.9992m  110.8736m  589.1267m 
 -416.47475m    1.0993u  699.9992m  111.0150m  588.9853m 
 -416.37475m    1.1058u  699.9992m  111.1564m  588.8439m 
 -416.27475m    1.1124u  699.9992m  111.2978m  588.7025m 
 -416.17475m    1.1190u  699.9992m  111.4392m  588.5611m 
 -416.07475m    1.1256u  699.9992m  111.5806m  588.4197m 
 -415.97475m    1.1323u  699.9992m  111.7221m  588.2783m 
 -415.87475m    1.1390u  699.9992m  111.8635m  588.1368m 
 -415.77475m    1.1458u  699.9992m  112.0049m  587.9954m 
 -415.67475m    1.1526u  699.9992m  112.1463m  587.8540m 
 -415.57475m    1.1594u  699.9992m  112.2877m  587.7126m 
 -415.47475m    1.1663u  699.9992m  112.4291m  587.5712m 
 -415.37475m    1.1732u  699.9992m  112.5706m  587.4298m 
 -415.27475m    1.1802u  699.9992m  112.7120m  587.2884m 
 -415.17475m    1.1872u  699.9992m  112.8534m  587.1469m 
 -415.07475m    1.1942u  699.9991m  112.9948m  587.0055m 
 -414.97475m    1.2013u  699.9991m  113.1362m  586.8641m 
 -414.87475m    1.2084u  699.9991m  113.2776m  586.7227m 
 -414.77475m    1.2156u  699.9991m  113.4191m  586.5813m 
 -414.67475m    1.2228u  699.9991m  113.5605m  586.4399m 
 -414.57475m    1.2301u  699.9991m  113.7019m  586.2985m 
 -414.47475m    1.2374u  699.9991m  113.8433m  586.1570m 
 -414.37475m    1.2447u  699.9991m  113.9847m  586.0156m 
 -414.27475m    1.2521u  699.9991m  114.1261m  585.8742m 
 -414.17475m    1.2596u  699.9991m  114.2676m  585.7328m 
 -414.07475m    1.2671u  699.9991m  114.4090m  585.5914m 
 -413.97475m    1.2746u  699.9991m  114.5504m  585.4500m 
 -413.87475m    1.2822u  699.9991m  114.6918m  585.3086m 
 -413.77475m    1.2898u  699.9991m  114.8332m  585.1671m 
 -413.67475m    1.2975u  699.9991m  114.9746m  585.0257m 
 -413.57475m    1.3052u  699.9991m  115.1161m  584.8843m 
 -413.47475m    1.3129u  699.9991m  115.2575m  584.7429m 
 -413.37475m    1.3207u  699.9991m  115.3989m  584.6015m 
 -413.27475m    1.3286u  699.9991m  115.5403m  584.4601m 
 -413.17475m    1.3365u  699.9990m  115.6817m  584.3187m 
 -413.07475m    1.3444u  699.9990m  115.8231m  584.1773m 
 -412.97475m    1.3524u  699.9990m  115.9645m  584.0358m 
 -412.87475m    1.3605u  699.9990m  116.1060m  583.8944m 
 -412.77475m    1.3686u  699.9990m  116.2474m  583.7530m 
 -412.67475m    1.3767u  699.9990m  116.3888m  583.6116m 
 -412.57475m    1.3849u  699.9990m  116.5302m  583.4702m 
 -412.47475m    1.3932u  699.9990m  116.6716m  583.3288m 
 -412.37475m    1.4014u  699.9990m  116.8130m  583.1874m 
 -412.27475m    1.4098u  699.9990m  116.9545m  583.0459m 
 -412.17475m    1.4182u  699.9990m  117.0959m  582.9045m 
 -412.07475m    1.4266u  699.9990m  117.2373m  582.7631m 
 -411.97475m    1.4351u  699.9990m  117.3787m  582.6217m 
 -411.87475m    1.4437u  699.9990m  117.5201m  582.4803m 
 -411.77475m    1.4523u  699.9990m  117.6615m  582.3389m 
 -411.67475m    1.4609u  699.9990m  117.8030m  582.1975m 
 -411.57475m    1.4696u  699.9990m  117.9444m  582.0561m 
 -411.47475m    1.4784u  699.9989m  118.0858m  581.9146m 
 -411.37475m    1.4872u  699.9989m  118.2272m  581.7732m 
 -411.27475m    1.4960u  699.9989m  118.3686m  581.6318m 
 -411.17475m    1.5049u  699.9989m  118.5100m  581.4904m 
 -411.07475m    1.5139u  699.9989m  118.6514m  581.3490m 
 -410.97475m    1.5229u  699.9989m  118.7929m  581.2076m 
 -410.87475m    1.5320u  699.9989m  118.9343m  581.0662m 
 -410.77475m    1.5412u  699.9989m  119.0757m  580.9248m 
 -410.67475m    1.5503u  699.9989m  119.2171m  580.7833m 
 -410.57475m    1.5596u  699.9989m  119.3585m  580.6419m 
 -410.47475m    1.5689u  699.9989m  119.4999m  580.5005m 
 -410.37475m    1.5782u  699.9989m  119.6413m  580.3591m 
 -410.27475m    1.5876u  699.9989m  119.7828m  580.2177m 
 -410.17475m    1.5971u  699.9989m  119.9242m  580.0763m 
 -410.07475m    1.6066u  699.9989m  120.0656m  579.9349m 
 -409.97475m    1.6162u  699.9989m  120.2070m  579.7935m 
 -409.87475m    1.6259u  699.9988m  120.3484m  579.6521m 
 -409.77475m    1.6356u  699.9988m  120.4898m  579.5106m 
 -409.67475m    1.6453u  699.9988m  120.6313m  579.3692m 
 -409.57475m    1.6552u  699.9988m  120.7727m  579.2278m 
 -409.47475m    1.6650u  699.9988m  120.9141m  579.0864m 
 -409.37475m    1.6750u  699.9988m  121.0555m  578.9450m 
 -409.27475m    1.6850u  699.9988m  121.1969m  578.8036m 
 -409.17475m    1.6950u  699.9988m  121.3383m  578.6622m 
 -409.07475m    1.7051u  699.9988m  121.4797m  578.5208m 
 -408.97475m    1.7153u  699.9988m  121.6212m  578.3793m 
 -408.87475m    1.7256u  699.9988m  121.7626m  578.2379m 
 -408.77475m    1.7359u  699.9988m  121.9040m  578.0965m 
 -408.67475m    1.7462u  699.9988m  122.0454m  577.9551m 
 -408.57475m    1.7567u  699.9988m  122.1868m  577.8137m 
 -408.47475m    1.7672u  699.9988m  122.3282m  577.6723m 
 -408.37475m    1.7777u  699.9987m  122.4696m  577.5309m 
 -408.27475m    1.7884u  699.9987m  122.6111m  577.3895m 
 -408.17475m    1.7990u  699.9987m  122.7525m  577.2481m 
 -408.07475m    1.8098u  699.9987m  122.8939m  577.1067m 
 -407.97475m    1.8206u  699.9987m  123.0353m  576.9652m 
 -407.87475m    1.8315u  699.9987m  123.1767m  576.8238m 
 -407.77475m    1.8424u  699.9987m  123.3181m  576.6824m 
 -407.67475m    1.8535u  699.9987m  123.4595m  576.5410m 
 -407.57475m    1.8645u  699.9987m  123.6010m  576.3996m 
 -407.47475m    1.8757u  699.9987m  123.7424m  576.2582m 
 -407.37475m    1.8869u  699.9987m  123.8838m  576.1168m 
 -407.27475m    1.8982u  699.9987m  124.0252m  575.9754m 
 -407.17475m    1.9095u  699.9987m  124.1666m  575.8340m 
 -407.07475m    1.9210u  699.9986m  124.3080m  575.6925m 
 -406.97475m    1.9325u  699.9986m  124.4494m  575.5511m 
 -406.87475m    1.9440u  699.9986m  124.5908m  575.4097m 
 -406.77475m    1.9557u  699.9986m  124.7323m  575.2683m 
 -406.67475m    1.9674u  699.9986m  124.8737m  575.1269m 
 -406.57475m    1.9791u  699.9986m  125.0151m  574.9855m 
 -406.47475m    1.9910u  699.9986m  125.1565m  574.8441m 
 -406.37475m    2.0029u  699.9986m  125.2979m  574.7027m 
 -406.27475m    2.0149u  699.9986m  125.4393m  574.5613m 
 -406.17475m    2.0270u  699.9986m  125.5807m  574.4199m 
 -406.07475m    2.0391u  699.9986m  125.7222m  574.2785m 
 -405.97475m    2.0513u  699.9986m  125.8636m  574.1370m 
 -405.87475m    2.0636u  699.9985m  126.0050m  573.9956m 
 -405.77475m    2.0759u  699.9985m  126.1464m  573.8542m 
 -405.67475m    2.0884u  699.9985m  126.2878m  573.7128m 
 -405.57475m    2.1009u  699.9985m  126.4292m  573.5714m 
 -405.47475m    2.1135u  699.9985m  126.5706m  573.4300m 
 -405.37475m    2.1261u  699.9985m  126.7120m  573.2886m 
 -405.27475m    2.1389u  699.9985m  126.8535m  573.1472m 
 -405.17475m    2.1517u  699.9985m  126.9949m  573.0058m 
 -405.07475m    2.1646u  699.9985m  127.1363m  572.8644m 
 -404.97475m    2.1776u  699.9985m  127.2777m  572.7230m 
 -404.87475m    2.1906u  699.9985m  127.4191m  572.5815m 
 -404.77475m    2.2038u  699.9985m  127.5605m  572.4401m 
 -404.67475m    2.2170u  699.9984m  127.7019m  572.2987m 
 -404.57475m    2.2303u  699.9984m  127.8433m  572.1573m 
 -404.47475m    2.2436u  699.9984m  127.9848m  572.0159m 
 -404.37475m    2.2571u  699.9984m  128.1262m  571.8745m 
 -404.27475m    2.2706u  699.9984m  128.2676m  571.7331m 
 -404.17475m    2.2843u  699.9984m  128.4090m  571.5917m 
 -404.07475m    2.2980u  699.9984m  128.5504m  571.4503m 
 -403.97475m    2.3118u  699.9984m  128.6918m  571.3089m 
 -403.87475m    2.3256u  699.9984m  128.8332m  571.1675m 
 -403.77475m    2.3396u  699.9984m  128.9746m  571.0261m 
 -403.67475m    2.3536u  699.9984m  129.1161m  570.8847m 
 -403.57475m    2.3677u  699.9983m  129.2575m  570.7432m 
 -403.47475m    2.3820u  699.9983m  129.3989m  570.6018m 
 -403.37475m    2.3963u  699.9983m  129.5403m  570.4604m 
 -403.27475m    2.4106u  699.9983m  129.6817m  570.3190m 
 -403.17475m    2.4251u  699.9983m  129.8231m  570.1776m 
 -403.07475m    2.4397u  699.9983m  129.9645m  570.0362m 
 -402.97475m    2.4543u  699.9983m  130.1059m  569.8948m 
 -402.87475m    2.4691u  699.9983m  130.2473m  569.7534m 
 -402.77475m    2.4839u  699.9983m  130.3888m  569.6120m 
 -402.67475m    2.4988u  699.9983m  130.5302m  569.4706m 
 -402.57475m    2.5138u  699.9982m  130.6716m  569.3292m 
 -402.47475m    2.5289u  699.9982m  130.8130m  569.1878m 
 -402.37475m    2.5441u  699.9982m  130.9544m  569.0464m 
 -402.27475m    2.5594u  699.9982m  131.0958m  568.9050m 
 -402.17475m    2.5748u  699.9982m  131.2372m  568.7636m 
 -402.07475m    2.5903u  699.9982m  131.3786m  568.6222m 
 -401.97475m    2.6058u  699.9982m  131.5200m  568.4807m 
 -401.87475m    2.6215u  699.9982m  131.6615m  568.3393m 
 -401.77475m    2.6373u  699.9982m  131.8029m  568.1979m 
 -401.67475m    2.6531u  699.9982m  131.9443m  568.0565m 
 -401.57475m    2.6691u  699.9981m  132.0857m  567.9151m 
 -401.47475m    2.6851u  699.9981m  132.2271m  567.7737m 
 -401.37475m    2.7013u  699.9981m  132.3685m  567.6323m 
 -401.27475m    2.7175u  699.9981m  132.5099m  567.4909m 
 -401.17475m    2.7339u  699.9981m  132.6513m  567.3495m 
 -401.07475m    2.7503u  699.9981m  132.7927m  567.2081m 
 -400.97475m    2.7669u  699.9981m  132.9341m  567.0667m 
 -400.87475m    2.7835u  699.9981m  133.0756m  566.9253m 
 -400.77475m    2.8003u  699.9981m  133.2170m  566.7839m 
 -400.67475m    2.8171u  699.9980m  133.3584m  566.6425m 
 -400.57475m    2.8341u  699.9980m  133.4998m  566.5011m 
 -400.47475m    2.8511u  699.9980m  133.6412m  566.3597m 
 -400.37475m    2.8683u  699.9980m  133.7826m  566.2183m 
 -400.27475m    2.8856u  699.9980m  133.9240m  566.0769m 
 -400.17475m    2.9030u  699.9980m  134.0654m  565.9355m 
 -400.07475m    2.9204u  699.9980m  134.2068m  565.7941m 
 -399.97475m    2.9380u  699.9980m  134.3482m  565.6526m 
 -399.87475m    2.9557u  699.9979m  134.4897m  565.5112m 
 -399.77475m    2.9735u  699.9979m  134.6311m  565.3698m 
 -399.67475m    2.9914u  699.9979m  134.7725m  565.2284m 
 -399.57475m    3.0095u  699.9979m  134.9139m  565.0870m 
 -399.47475m    3.0276u  699.9979m  135.0553m  564.9456m 
 -399.37475m    3.0458u  699.9979m  135.1967m  564.8042m 
 -399.27475m    3.0642u  699.9979m  135.3381m  564.6628m 
 -399.17475m    3.0827u  699.9979m  135.4795m  564.5214m 
 -399.07475m    3.1012u  699.9978m  135.6209m  564.3800m 
 -398.97475m    3.1199u  699.9978m  135.7623m  564.2386m 
 -398.87475m    3.1387u  699.9978m  135.9037m  564.0972m 
 -398.77475m    3.1577u  699.9978m  136.0452m  563.9558m 
 -398.67475m    3.1767u  699.9978m  136.1866m  563.8144m 
 -398.57475m    3.1959u  699.9978m  136.3280m  563.6730m 
 -398.47475m    3.2151u  699.9978m  136.4694m  563.5316m 
 -398.37475m    3.2345u  699.9978m  136.6108m  563.3902m 
 -398.27475m    3.2540u  699.9977m  136.7522m  563.2488m 
 -398.17475m    3.2737u  699.9977m  136.8936m  563.1074m 
 -398.07475m    3.2934u  699.9977m  137.0350m  562.9660m 
 -397.97475m    3.3133u  699.9977m  137.1764m  562.8246m 
 -397.87475m    3.3333u  699.9977m  137.3178m  562.6832m 
 -397.77475m    3.3534u  699.9977m  137.4592m  562.5418m 
 -397.67475m    3.3736u  699.9977m  137.6006m  562.4004m 
 -397.57475m    3.3940u  699.9977m  137.7421m  562.2590m 
 -397.47475m    3.4145u  699.9976m  137.8835m  562.1176m 
 -397.37475m    3.4351u  699.9976m  138.0249m  561.9762m 
 -397.27475m    3.4558u  699.9976m  138.1663m  561.8348m 
 -397.17475m    3.4767u  699.9976m  138.3077m  561.6934m 
 -397.07475m    3.4977u  699.9976m  138.4491m  561.5520m 
 -396.97475m    3.5188u  699.9976m  138.5905m  561.4106m 
 -396.87475m    3.5401u  699.9976m  138.7319m  561.2692m 
 -396.77475m    3.5615u  699.9975m  138.8733m  561.1278m 
 -396.67475m    3.5830u  699.9975m  139.0147m  560.9864m 
 -396.57475m    3.6046u  699.9975m  139.1561m  560.8450m 
 -396.47475m    3.6264u  699.9975m  139.2975m  560.7036m 
 -396.37475m    3.6483u  699.9975m  139.4389m  560.5622m 
 -396.27475m    3.6704u  699.9975m  139.5803m  560.4208m 
 -396.17475m    3.6925u  699.9975m  139.7218m  560.2794m 
 -396.07475m    3.7149u  699.9974m  139.8632m  560.1380m 
 -395.97475m    3.7373u  699.9974m  140.0046m  559.9966m 
 -395.87475m    3.7599u  699.9974m  140.1460m  559.8552m 
 -395.77475m    3.7826u  699.9974m  140.2874m  559.7138m 
 -395.67475m    3.8055u  699.9974m  140.4288m  559.5724m 
 -395.57475m    3.8285u  699.9974m  140.5702m  559.4310m 
 -395.47475m    3.8517u  699.9973m  140.7116m  559.2896m 
 -395.37475m    3.8750u  699.9973m  140.8530m  559.1482m 
 -395.27475m    3.8984u  699.9973m  140.9944m  559.0068m 
 -395.17475m    3.9220u  699.9973m  141.1358m  558.8654m 
 -395.07475m    3.9457u  699.9973m  141.2772m  558.7240m 
 -394.97475m    3.9696u  699.9973m  141.4186m  558.5826m 
 -394.87475m    3.9936u  699.9973m  141.5600m  558.4412m 
 -394.77475m    4.0178u  699.9972m  141.7014m  558.2998m 
 -394.67475m    4.0421u  699.9972m  141.8428m  558.1584m 
 -394.57475m    4.0666u  699.9972m  141.9842m  558.0170m 
 -394.47475m    4.0912u  699.9972m  142.1257m  557.8756m 
 -394.37475m    4.1160u  699.9972m  142.2671m  557.7342m 
 -394.27475m    4.1409u  699.9972m  142.4085m  557.5928m 
 -394.17475m    4.1659u  699.9971m  142.5499m  557.4514m 
 -394.07475m    4.1912u  699.9971m  142.6913m  557.3100m 
 -393.97475m    4.2166u  699.9971m  142.8327m  557.1686m 
 -393.87475m    4.2421u  699.9971m  142.9741m  557.0273m 
 -393.77475m    4.2678u  699.9971m  143.1155m  556.8859m 
 -393.67475m    4.2936u  699.9971m  143.2569m  556.7445m 
 -393.57475m    4.3197u  699.9970m  143.3983m  556.6031m 
 -393.47475m    4.3458u  699.9970m  143.5397m  556.4617m 
 -393.37475m    4.3722u  699.9970m  143.6811m  556.3203m 
 -393.27475m    4.3987u  699.9970m  143.8225m  556.1789m 
 -393.17475m    4.4253u  699.9970m  143.9639m  556.0375m 
 -393.07475m    4.4521u  699.9970m  144.1053m  555.8961m 
 -392.97475m    4.4791u  699.9969m  144.2467m  555.7547m 
 -392.87475m    4.5063u  699.9969m  144.3881m  555.6133m 
 -392.77475m    4.5336u  699.9969m  144.5295m  555.4719m 
 -392.67475m    4.5611u  699.9969m  144.6709m  555.3305m 
 -392.57475m    4.5888u  699.9969m  144.8123m  555.1891m 
 -392.47475m    4.6166u  699.9968m  144.9537m  555.0477m 
 -392.37475m    4.6446u  699.9968m  145.0951m  554.9063m 
 -392.27475m    4.6728u  699.9968m  145.2365m  554.7649m 
 -392.17475m    4.7011u  699.9968m  145.3779m  554.6235m 
 -392.07475m    4.7296u  699.9968m  145.5193m  554.4822m 
 -391.97475m    4.7583u  699.9967m  145.6607m  554.3408m 
 -391.87475m    4.7872u  699.9967m  145.8021m  554.1994m 
 -391.77475m    4.8163u  699.9967m  145.9436m  554.0580m 
 -391.67475m    4.8455u  699.9967m  146.0850m  553.9166m 
 -391.57475m    4.8749u  699.9967m  146.2264m  553.7752m 
 -391.47475m    4.9045u  699.9967m  146.3678m  553.6338m 
 -391.37475m    4.9343u  699.9966m  146.5092m  553.4924m 
 -391.27475m    4.9642u  699.9966m  146.6506m  553.3510m 
 -391.17475m    4.9944u  699.9966m  146.7920m  553.2096m 
 -391.07475m    5.0247u  699.9966m  146.9334m  553.0682m 
 -390.97475m    5.0552u  699.9966m  147.0748m  552.9268m 
 -390.87475m    5.0859u  699.9965m  147.2162m  552.7855m 
 -390.77475m    5.1168u  699.9965m  147.3576m  552.6441m 
 -390.67475m    5.1479u  699.9965m  147.4990m  552.5027m 
 -390.57475m    5.1792u  699.9965m  147.6404m  552.3613m 
 -390.47475m    5.2107u  699.9965m  147.7818m  552.2199m 
 -390.37475m    5.2423u  699.9964m  147.9232m  552.0785m 
 -390.27475m    5.2742u  699.9964m  148.0646m  551.9371m 
 -390.17475m    5.3062u  699.9964m  148.2060m  551.7957m 
 -390.07475m    5.3385u  699.9964m  148.3474m  551.6543m 
 -389.97475m    5.3709u  699.9963m  148.4888m  551.5129m 
 -389.87475m    5.4036u  699.9963m  148.6302m  551.3716m 
 -389.77475m    5.4364u  699.9963m  148.7716m  551.2302m 
 -389.67475m    5.4695u  699.9963m  148.9130m  551.0888m 
 -389.57475m    5.5028u  699.9963m  149.0544m  550.9474m 
 -389.47475m    5.5362u  699.9962m  149.1958m  550.8060m 
 -389.37475m    5.5699u  699.9962m  149.3372m  550.6646m 
 -389.27475m    5.6038u  699.9962m  149.4786m  550.5232m 
 -389.17475m    5.6379u  699.9962m  149.6200m  550.3818m 
 -389.07475m    5.6722u  699.9961m  149.7614m  550.2405m 
 -388.97475m    5.7067u  699.9961m  149.9028m  550.0991m 
 -388.87475m    5.7414u  699.9961m  150.0442m  549.9577m 
 -388.77475m    5.7764u  699.9961m  150.1856m  549.8163m 
 -388.67475m    5.8115u  699.9961m  150.3270m  549.6749m 
 -388.57475m    5.8469u  699.9960m  150.4684m  549.5335m 
 -388.47475m    5.8825u  699.9960m  150.6098m  549.3921m 
 -388.37475m    5.9183u  699.9960m  150.7512m  549.2508m 
 -388.27475m    5.9544u  699.9960m  150.8926m  549.1094m 
 -388.17475m    5.9906u  699.9959m  151.0340m  548.9680m 
 -388.07475m    6.0271u  699.9959m  151.1753m  548.8266m 
 -387.97475m    6.0638u  699.9959m  151.3167m  548.6852m 
 -387.87475m    6.1007u  699.9959m  151.4581m  548.5438m 
 -387.77475m    6.1379u  699.9958m  151.5995m  548.4024m 
 -387.67475m    6.1753u  699.9958m  151.7409m  548.2611m 
 -387.57475m    6.2129u  699.9958m  151.8823m  548.1197m 
 -387.47475m    6.2508u  699.9958m  152.0237m  547.9783m 
 -387.37475m    6.2889u  699.9957m  152.1651m  547.8369m 
 -387.27475m    6.3272u  699.9957m  152.3065m  547.6955m 
 -387.17475m    6.3658u  699.9957m  152.4479m  547.5541m 
 -387.07475m    6.4046u  699.9957m  152.5893m  547.4128m 
 -386.97475m    6.4436u  699.9956m  152.7307m  547.2714m 
 -386.87475m    6.4829u  699.9956m  152.8721m  547.1300m 
 -386.77475m    6.5224u  699.9956m  153.0135m  546.9886m 
 -386.67475m    6.5622u  699.9956m  153.1549m  546.8472m 
 -386.57475m    6.6022u  699.9955m  153.2963m  546.7059m 
 -386.47475m    6.6425u  699.9955m  153.4377m  546.5645m 
 -386.37475m    6.6830u  699.9955m  153.5791m  546.4231m 
 -386.27475m    6.7238u  699.9955m  153.7205m  546.2817m 
 -386.17475m    6.7648u  699.9954m  153.8619m  546.1403m 
 -386.07475m    6.8061u  699.9954m  154.0033m  545.9989m 
 -385.97475m    6.8476u  699.9954m  154.1447m  545.8576m 
 -385.87475m    6.8894u  699.9954m  154.2861m  545.7162m 
 -385.77475m    6.9314u  699.9953m  154.4275m  545.5748m 
 -385.67475m    6.9738u  699.9953m  154.5688m  545.4334m 
 -385.57475m    7.0163u  699.9953m  154.7102m  545.2921m 
 -385.47475m    7.0592u  699.9952m  154.8516m  545.1507m 
 -385.37475m    7.1023u  699.9952m  154.9930m  545.0093m 
 -385.27475m    7.1456u  699.9952m  155.1344m  544.8679m 
 -385.17475m    7.1893u  699.9952m  155.2758m  544.7265m 
 -385.07475m    7.2332u  699.9951m  155.4172m  544.5852m 
 -384.97475m    7.2774u  699.9951m  155.5586m  544.4438m 
 -384.87475m    7.3218u  699.9951m  155.7000m  544.3024m 
 -384.77475m    7.3665u  699.9950m  155.8414m  544.1610m 
 -384.67475m    7.4115u  699.9950m  155.9828m  544.0197m 
 -384.57475m    7.4568u  699.9950m  156.1242m  543.8783m 
 -384.47475m    7.5024u  699.9950m  156.2656m  543.7369m 
 -384.37475m    7.5482u  699.9949m  156.4069m  543.5955m 
 -384.27475m    7.5944u  699.9949m  156.5483m  543.4542m 
 -384.17475m    7.6408u  699.9949m  156.6897m  543.3128m 
 -384.07475m    7.6875u  699.9948m  156.8311m  543.1714m 
 -383.97475m    7.7345u  699.9948m  156.9725m  543.0300m 
 -383.87475m    7.7818u  699.9948m  157.1139m  542.8887m 
 -383.77475m    7.8294u  699.9947m  157.2553m  542.7473m 
 -383.67475m    7.8773u  699.9947m  157.3967m  542.6059m 
 -383.57475m    7.9255u  699.9947m  157.5381m  542.4645m 
 -383.47475m    7.9739u  699.9947m  157.6795m  542.3232m 
 -383.37475m    8.0227u  699.9946m  157.8209m  542.1818m 
 -383.27475m    8.0718u  699.9946m  157.9622m  542.0404m 
 -383.17475m    8.1212u  699.9946m  158.1036m  541.8990m 
 -383.07475m    8.1709u  699.9945m  158.2450m  541.7577m 
 -382.97475m    8.2209u  699.9945m  158.3864m  541.6163m 
 -382.87475m    8.2712u  699.9945m  158.5278m  541.4749m 
 -382.77475m    8.3218u  699.9944m  158.6692m  541.3336m 
 -382.67475m    8.3728u  699.9944m  158.8106m  541.1922m 
 -382.57475m    8.4240u  699.9944m  158.9520m  541.0508m 
 -382.47475m    8.4756u  699.9943m  159.0934m  540.9094m 
 -382.37475m    8.5275u  699.9943m  159.2347m  540.7681m 
 -382.27475m    8.5797u  699.9943m  159.3761m  540.6267m 
 -382.17475m    8.6323u  699.9942m  159.5175m  540.4853m 
 -382.07475m    8.6851u  699.9942m  159.6589m  540.3440m 
 -381.97475m    8.7383u  699.9942m  159.8003m  540.2026m 
 -381.87475m    8.7919u  699.9941m  159.9417m  540.0612m 
 -381.77475m    8.8457u  699.9941m  160.0831m  539.9199m 
 -381.67475m    8.8999u  699.9941m  160.2245m  539.7785m 
 -381.57475m    8.9545u  699.9940m  160.3658m  539.6371m 
 -381.47475m    9.0093u  699.9940m  160.5072m  539.4958m 
 -381.37475m    9.0646u  699.9940m  160.6486m  539.3544m 
 -381.27475m    9.1201u  699.9939m  160.7900m  539.2130m 
 -381.17475m    9.1760u  699.9939m  160.9314m  539.0717m 
 -381.07475m    9.2323u  699.9938m  161.0728m  538.9303m 
 -380.97475m    9.2889u  699.9938m  161.2142m  538.7889m 
 -380.87475m    9.3458u  699.9938m  161.3555m  538.6476m 
 -380.77475m    9.4032u  699.9937m  161.4969m  538.5062m 
 -380.67475m    9.4608u  699.9937m  161.6383m  538.3649m 
 -380.57475m    9.5189u  699.9937m  161.7797m  538.2235m 
 -380.47475m    9.5773u  699.9936m  161.9211m  538.0821m 
 -380.37475m    9.6360u  699.9936m  162.0625m  537.9408m 
 -380.27475m    9.6951u  699.9935m  162.2038m  537.7994m 
 -380.17475m    9.7546u  699.9935m  162.3452m  537.6580m 
 -380.07475m    9.8145u  699.9935m  162.4866m  537.5167m 
 -379.97475m    9.8747u  699.9934m  162.6280m  537.3753m 
 -379.87475m    9.9353u  699.9934m  162.7694m  537.2340m 
 -379.77475m    9.9963u  699.9934m  162.9108m  537.0926m 
 -379.67475m   10.0577u  699.9933m  163.0521m  536.9512m 
 -379.57475m   10.1194u  699.9933m  163.1935m  536.8099m 
 -379.47475m   10.1816u  699.9932m  163.3349m  536.6685m 
 -379.37475m   10.2441u  699.9932m  163.4763m  536.5272m 
 -379.27475m   10.3070u  699.9932m  163.6177m  536.3858m 
 -379.17475m   10.3703u  699.9931m  163.7590m  536.2444m 
 -379.07475m   10.4340u  699.9931m  163.9004m  536.1031m 
 -378.97475m   10.4981u  699.9930m  164.0418m  535.9617m 
 -378.87475m   10.5626u  699.9930m  164.1832m  535.8204m 
 -378.77475m   10.6275u  699.9930m  164.3246m  535.6790m 
 -378.67475m   10.6928u  699.9929m  164.4659m  535.5377m 
 -378.57475m   10.7585u  699.9929m  164.6073m  535.3963m 
 -378.47475m   10.8247u  699.9928m  164.7487m  535.2549m 
 -378.37475m   10.8912u  699.9928m  164.8901m  535.1136m 
 -378.27475m   10.9581u  699.9927m  165.0315m  534.9722m 
 -378.17475m   11.0255u  699.9927m  165.1728m  534.8309m 
 -378.07475m   11.0933u  699.9927m  165.3142m  534.6895m 
 -377.97475m   11.1615u  699.9926m  165.4556m  534.5482m 
 -377.87475m   11.2302u  699.9926m  165.5970m  534.4068m 
 -377.77475m   11.2992u  699.9925m  165.7384m  534.2655m 
 -377.67475m   11.3687u  699.9925m  165.8797m  534.1241m 
 -377.57475m   11.4387u  699.9924m  166.0211m  533.9828m 
 -377.47475m   11.5090u  699.9924m  166.1625m  533.8414m 
 -377.37475m   11.5798u  699.9923m  166.3039m  533.7001m 
 -377.27475m   11.6511u  699.9923m  166.4452m  533.5587m 
 -377.17475m   11.7228u  699.9923m  166.5866m  533.4174m 
 -377.07475m   11.7949u  699.9922m  166.7280m  533.2760m 
 -376.97475m   11.8675u  699.9922m  166.8694m  533.1347m 
 -376.87475m   11.9406u  699.9921m  167.0107m  532.9933m 
 -376.77475m   12.0141u  699.9921m  167.1521m  532.8520m 
 -376.67475m   12.0881u  699.9920m  167.2935m  532.7106m 
 -376.57475m   12.1625u  699.9920m  167.4349m  532.5693m 
 -376.47475m   12.2374u  699.9919m  167.5762m  532.4279m 
 -376.37475m   12.3128u  699.9919m  167.7176m  532.2866m 
 -376.27475m   12.3886u  699.9918m  167.8590m  532.1452m 
 -376.17475m   12.4649u  699.9918m  168.0004m  532.0039m 
 -376.07475m   12.5417u  699.9917m  168.1417m  531.8625m 
 -375.97475m   12.6190u  699.9917m  168.2831m  531.7212m 
 -375.87475m   12.6967u  699.9916m  168.4245m  531.5799m 
 -375.77475m   12.7750u  699.9916m  168.5658m  531.4385m 
 -375.67475m   12.8537u  699.9915m  168.7072m  531.2972m 
 -375.57475m   12.9329u  699.9915m  168.8486m  531.1558m 
 -375.47475m   13.0127u  699.9914m  168.9900m  531.0145m 
 -375.37475m   13.0929u  699.9914m  169.1313m  530.8732m 
 -375.27475m   13.1736u  699.9913m  169.2727m  530.7318m 
 -375.17475m   13.2548u  699.9913m  169.4141m  530.5905m 
 -375.07475m   13.3366u  699.9912m  169.5554m  530.4491m 
 -374.97475m   13.4188u  699.9912m  169.6968m  530.3078m 
 -374.87475m   13.5016u  699.9911m  169.8382m  530.1665m 
 -374.77475m   13.5849u  699.9911m  169.9795m  530.0251m 
 -374.67475m   13.6687u  699.9910m  170.1209m  529.8838m 
 -374.57475m   13.7530u  699.9910m  170.2623m  529.7424m 
 -374.47475m   13.8379u  699.9909m  170.4037m  529.6011m 
 -374.37475m   13.9232u  699.9909m  170.5450m  529.4598m 
 -374.27475m   14.0092u  699.9908m  170.6864m  529.3184m 
 -374.17475m   14.0956u  699.9908m  170.8278m  529.1771m 
 -374.07475m   14.1826u  699.9907m  170.9691m  529.0358m 
 -373.97475m   14.2702u  699.9906m  171.1105m  528.8944m 
 -373.87475m   14.3583u  699.9906m  171.2519m  528.7531m 
 -373.77475m   14.4469u  699.9905m  171.3932m  528.6118m 
 -373.67475m   14.5362u  699.9905m  171.5346m  528.4704m 
 -373.57475m   14.6259u  699.9904m  171.6759m  528.3291m 
 -373.47475m   14.7163u  699.9904m  171.8173m  528.1878m 
 -373.37475m   14.8072u  699.9903m  171.9587m  528.0464m 
 -373.27475m   14.8986u  699.9903m  172.1000m  527.9051m 
 -373.17475m   14.9907u  699.9902m  172.2414m  527.7638m 
 -373.07475m   15.0833u  699.9901m  172.3828m  527.6225m 
 -372.97475m   15.1765u  699.9901m  172.5241m  527.4811m 
 -372.87475m   15.2703u  699.9900m  172.6655m  527.3398m 
 -372.77475m   15.3647u  699.9900m  172.8069m  527.1985m 
 -372.67475m   15.4596u  699.9899m  172.9482m  527.0571m 
 -372.57475m   15.5552u  699.9898m  173.0896m  526.9158m 
 -372.47475m   15.6514u  699.9898m  173.2309m  526.7745m 
 -372.37475m   15.7481u  699.9897m  173.3723m  526.6332m 
 -372.27475m   15.8455u  699.9897m  173.5137m  526.4918m 
 -372.17475m   15.9435u  699.9896m  173.6550m  526.3505m 
 -372.07475m   16.0421u  699.9895m  173.7964m  526.2092m 
 -371.97475m   16.1413u  699.9895m  173.9377m  526.0679m 
 -371.87475m   16.2412u  699.9894m  174.0791m  525.9266m 
 -371.77475m   16.3417u  699.9893m  174.2205m  525.7852m 
 -371.67475m   16.4428u  699.9893m  174.3618m  525.6439m 
 -371.57475m   16.5445u  699.9892m  174.5032m  525.5026m 
 -371.47475m   16.6469u  699.9892m  174.6445m  525.3613m 
 -371.37475m   16.7499u  699.9891m  174.7859m  525.2200m 
 -371.27475m   16.8536u  699.9890m  174.9272m  525.0786m 
 -371.17475m   16.9579u  699.9890m  175.0686m  524.9373m 
 -371.07475m   17.0629u  699.9889m  175.2100m  524.7960m 
 -370.97475m   17.1685u  699.9888m  175.3513m  524.6547m 
 -370.87475m   17.2749u  699.9888m  175.4927m  524.5134m 
 -370.77475m   17.3818u  699.9887m  175.6340m  524.3721m 
 -370.67475m   17.4895u  699.9886m  175.7754m  524.2307m 
 -370.57475m   17.5978u  699.9886m  175.9167m  524.0894m 
 -370.47475m   17.7068u  699.9885m  176.0581m  523.9481m 
 -370.37475m   17.8165u  699.9884m  176.1994m  523.8068m 
 -370.27475m   17.9269u  699.9884m  176.3408m  523.6655m 
 -370.17475m   18.0380u  699.9883m  176.4821m  523.5242m 
 -370.07475m   18.1498u  699.9882m  176.6235m  523.3829m 
 -369.97475m   18.2622u  699.9881m  176.7648m  523.2416m 
 -369.87475m   18.3754u  699.9881m  176.9062m  523.1003m 
 -369.77475m   18.4893u  699.9880m  177.0475m  522.9590m 
 -369.67475m   18.6040u  699.9879m  177.1889m  522.8176m 
 -369.57475m   18.7193u  699.9879m  177.3302m  522.6763m 
 -369.47475m   18.8354u  699.9878m  177.4716m  522.5350m 
 -369.37475m   18.9522u  699.9877m  177.6129m  522.3937m 
 -369.27475m   19.0697u  699.9876m  177.7543m  522.2524m 
 -369.17475m   19.1880u  699.9876m  177.8956m  522.1111m 
 -369.07475m   19.3070u  699.9875m  178.0370m  521.9698m 
 -368.97475m   19.4268u  699.9874m  178.1783m  521.8285m 
 -368.87475m   19.5473u  699.9873m  178.3197m  521.6872m 
 -368.77475m   19.6686u  699.9873m  178.4610m  521.5459m 
 -368.67475m   19.7907u  699.9872m  178.6024m  521.4046m 
 -368.57475m   19.9135u  699.9871m  178.7437m  521.2633m 
 -368.47475m   20.0371u  699.9870m  178.8851m  521.1220m 
 -368.37475m   20.1615u  699.9870m  179.0264m  520.9807m 
 -368.27475m   20.2866u  699.9869m  179.1677m  520.8394m 
 -368.17475m   20.4126u  699.9868m  179.3091m  520.6981m 
 -368.07475m   20.5393u  699.9867m  179.4504m  520.5568m 
 -367.97475m   20.6669u  699.9867m  179.5918m  520.4155m 
 -367.87475m   20.7952u  699.9866m  179.7331m  520.2743m 
 -367.77475m   20.9244u  699.9865m  179.8745m  520.1330m 
 -367.67475m   21.0544u  699.9864m  180.0158m  519.9917m 
 -367.57475m   21.1852u  699.9863m  180.1571m  519.8504m 
 -367.47475m   21.3168u  699.9863m  180.2985m  519.7091m 
 -367.37475m   21.4493u  699.9862m  180.4398m  519.5678m 
 -367.27475m   21.5825u  699.9861m  180.5812m  519.4265m 
 -367.17475m   21.7167u  699.9860m  180.7225m  519.2852m 
 -367.07475m   21.8517u  699.9859m  180.8638m  519.1439m 
 -366.97475m   21.9875u  699.9858m  181.0052m  519.0027m 
 -366.87475m   22.1242u  699.9858m  181.1465m  518.8614m 
 -366.77475m   22.2617u  699.9857m  181.2878m  518.7201m 
 -366.67475m   22.4001u  699.9856m  181.4292m  518.5788m 
 -366.57475m   22.5394u  699.9855m  181.5705m  518.4375m 
 -366.47475m   22.6796u  699.9854m  181.7119m  518.2962m 
 -366.37475m   22.8207u  699.9853m  181.8532m  518.1550m 
 -366.27475m   22.9626u  699.9852m  181.9945m  518.0137m 
 -366.17475m   23.1055u  699.9851m  182.1359m  517.8724m 
 -366.07475m   23.2492u  699.9851m  182.2772m  517.7311m 
 -365.97475m   23.3939u  699.9850m  182.4185m  517.5898m 
 -365.87475m   23.5395u  699.9849m  182.5598m  517.4486m 
 -365.77475m   23.6860u  699.9848m  182.7012m  517.3073m 
 -365.67475m   23.8334u  699.9847m  182.8425m  517.1660m 
 -365.57475m   23.9818u  699.9846m  182.9838m  517.0247m 
 -365.47475m   24.1311u  699.9845m  183.1252m  516.8835m 
 -365.37475m   24.2813u  699.9844m  183.2665m  516.7422m 
 -365.27475m   24.4325u  699.9843m  183.4078m  516.6009m 
 -365.17475m   24.5846u  699.9842m  183.5492m  516.4597m 
 -365.07475m   24.7378u  699.9841m  183.6905m  516.3184m 
 -364.97475m   24.8918u  699.9840m  183.8318m  516.1771m 
 -364.87475m   25.0469u  699.9840m  183.9731m  516.0359m 
 -364.77475m   25.2029u  699.9839m  184.1145m  515.8946m 
 -364.67475m   25.3600u  699.9838m  184.2558m  515.7533m 
 -364.57475m   25.5180u  699.9837m  184.3971m  515.6121m 
 -364.47475m   25.6770u  699.9836m  184.5384m  515.4708m 
 -364.37475m   25.8370u  699.9835m  184.6798m  515.3295m 
 -364.27475m   25.9981u  699.9834m  184.8211m  515.1883m 
 -364.17475m   26.1601u  699.9833m  184.9624m  515.0470m 
 -364.07475m   26.3232u  699.9832m  185.1037m  514.9058m 
 -363.97475m   26.4873u  699.9831m  185.2450m  514.7645m 
 -363.87475m   26.6525u  699.9830m  185.3864m  514.6233m 
 -363.77475m   26.8187u  699.9829m  185.5277m  514.4820m 
 -363.67475m   26.9860u  699.9828m  185.6690m  514.3407m 
 -363.57475m   27.1543u  699.9827m  185.8103m  514.1995m 
 -363.47475m   27.3237u  699.9826m  185.9516m  514.0582m 
 -363.37475m   27.4941u  699.9825m  186.0930m  513.9170m 
 -363.27475m   27.6657u  699.9823m  186.2343m  513.7757m 
 -363.17475m   27.8383u  699.9822m  186.3756m  513.6345m 
 -363.07475m   28.0120u  699.9821m  186.5169m  513.4932m 
 -362.97475m   28.1869u  699.9820m  186.6582m  513.3520m 
 -362.87475m   28.3628u  699.9819m  186.7995m  513.2108m 
 -362.77475m   28.5398u  699.9818m  186.9408m  513.0695m 
 -362.67475m   28.7180u  699.9817m  187.0822m  512.9283m 
 -362.57475m   28.8973u  699.9816m  187.2235m  512.7870m 
 -362.47475m   29.0778u  699.9815m  187.3648m  512.6458m 
 -362.37475m   29.2594u  699.9814m  187.5061m  512.5045m 
 -362.27475m   29.4421u  699.9813m  187.6474m  512.3633m 
 -362.17475m   29.6260u  699.9811m  187.7887m  512.2221m 
 -362.07475m   29.8111u  699.9810m  187.9300m  512.0808m 
 -361.97475m   29.9973u  699.9809m  188.0713m  511.9396m 
 -361.87475m   30.1847u  699.9808m  188.2126m  511.7984m 
 -361.77475m   30.3733u  699.9807m  188.3539m  511.6571m 
 -361.67475m   30.5632u  699.9806m  188.4952m  511.5159m 
 -361.57475m   30.7542u  699.9805m  188.6366m  511.3747m 
 -361.47475m   30.9464u  699.9803m  188.7779m  511.2334m 
 -361.37475m   31.1399u  699.9802m  188.9192m  511.0922m 
 -361.27475m   31.3345u  699.9801m  189.0605m  510.9510m 
 -361.17475m   31.5305u  699.9800m  189.2018m  510.8098m 
 -361.07475m   31.7276u  699.9799m  189.3431m  510.6685m 
 -360.97475m   31.9260u  699.9797m  189.4844m  510.5273m 
 -360.87475m   32.1257u  699.9796m  189.6257m  510.3861m 
 -360.77475m   32.3267u  699.9795m  189.7670m  510.2449m 
 -360.67475m   32.5289u  699.9794m  189.9083m  510.1036m 
 -360.57475m   32.7324u  699.9793m  190.0496m  509.9624m 
 -360.47475m   32.9372u  699.9791m  190.1909m  509.8212m 
 -360.37475m   33.1433u  699.9790m  190.3322m  509.6800m 
 -360.27475m   33.3507u  699.9789m  190.4735m  509.5388m 
 -360.17475m   33.5595u  699.9788m  190.6147m  509.3976m 
 -360.07475m   33.7695u  699.9786m  190.7560m  509.2564m 
[...]
  469.52525m  700.0000m   54.6846n  664.0090m   35.9910m 
  469.62525m  700.0000m   54.4017n  664.1505m   35.8496m 
  469.72525m  700.0000m   54.1205n  664.2919m   35.7081m 
  469.82525m  700.0000m   53.8410n  664.4333m   35.5667m 
  469.92525m  700.0000m   53.5630n  664.5747m   35.4253m 
  470.02525m  700.0000m   53.2867n  664.7161m   35.2839m 
  470.12525m  700.0000m   53.0119n  664.8576m   35.1424m 
  470.22525m  700.0000m   52.7388n  664.9990m   35.0010m 
  470.32525m  700.0000m   52.4672n  665.1404m   34.8596m 
  470.42525m  700.0000m   52.1973n  665.2818m   34.7182m 
  470.52525m  700.0000m   51.9289n  665.4232m   34.5768m 
  470.62525m  700.0000m   51.6620n  665.5647m   34.4353m 
  470.72525m  700.0000m   51.3967n  665.7061m   34.2939m 
  470.82525m  700.0000m   51.1329n  665.8475m   34.1525m 
  470.92525m  700.0000m   50.8707n  665.9889m   34.0111m 
  471.02525m  700.0000m   50.6100n  666.1304m   33.8697m 
  471.12525m  700.0000m   50.3508n  666.2718m   33.7282m 
  471.22525m  700.0000m   50.0931n  666.4132m   33.5868m 
  471.32525m  700.0000m   49.8368n  666.5546m   33.4454m 
  471.42525m  700.0000m   49.5821n  666.6960m   33.3040m 
  471.52525m  700.0000m   49.3289n  666.8375m   33.1626m 
  471.62525m  700.0000m   49.0771n  666.9789m   33.0211m 
  471.72525m  700.0000m   48.8268n  667.1203m   32.8797m 
  471.82525m  700.0000m   48.5779n  667.2617m   32.7383m 
  471.92525m  700.0000m   48.3305n  667.4031m   32.5969m 
  472.02525m  700.0000m   48.0845n  667.5446m   32.4554m 
  472.12525m  700.0000m   47.8400n  667.6860m   32.3140m 
  472.22525m  700.0000m   47.5968n  667.8274m   32.1726m 
  472.32525m  700.0000m   47.3551n  667.9688m   32.0312m 
  472.42525m  700.0000m   47.1148n  668.1102m   31.8898m 
  472.52525m  700.0000m   46.8758n  668.2517m   31.7483m 
  472.62525m  700.0000m   46.6383n  668.3931m   31.6069m 
  472.72525m  700.0000m   46.4021n  668.5345m   31.4655m 
  472.82525m  700.0000m   46.1673n  668.6759m   31.3241m 
  472.92525m  700.0000m   45.9338n  668.8174m   31.1827m 
  473.02525m  700.0000m   45.7017n  668.9588m   31.0412m 
  473.12525m  700.0000m   45.4710n  669.1002m   30.8998m 
  473.22525m  700.0000m   45.2416n  669.2416m   30.7584m 
  473.32525m  700.0000m   45.0135n  669.3830m   30.6170m 
  473.42525m  700.0000m   44.7868n  669.5245m   30.4755m 
  473.52525m  700.0000m   44.5613n  669.6659m   30.3341m 
  473.62525m  700.0000m   44.3372n  669.8073m   30.1927m 
  473.72525m  700.0000m   44.1144n  669.9487m   30.0513m 
  473.82525m  700.0000m   43.8928n  670.0901m   29.9099m 
  473.92525m  700.0000m   43.6726n  670.2316m   29.7684m 
  474.02525m  700.0000m   43.4536n  670.3730m   29.6270m 
  474.12525m  700.0000m   43.2359n  670.5144m   29.4856m 
  474.22525m  700.0000m   43.0194n  670.6558m   29.3442m 
  474.32525m  700.0000m   42.8042n  670.7972m   29.2028m 
  474.42525m  700.0000m   42.5903n  670.9387m   29.0613m 
  474.52525m  700.0000m   42.3776n  671.0801m   28.9199m 
  474.62525m  700.0000m   42.1661n  671.2215m   28.7785m 
  474.72525m  700.0000m   41.9558n  671.3629m   28.6371m 
  474.82525m  700.0000m   41.7468n  671.5044m   28.4957m 
  474.92525m  700.0000m   41.5390n  671.6458m   28.3542m 
  475.02525m  700.0000m   41.3323n  671.7872m   28.2128m 
  475.12525m  700.0000m   41.1269n  671.9286m   28.0714m 
  475.22525m  700.0000m   40.9227n  672.0700m   27.9300m 
  475.32525m  700.0000m   40.7197n  672.2115m   27.7885m 
  475.42525m  700.0000m   40.5178n  672.3529m   27.6471m 
  475.52525m  700.0000m   40.3171n  672.4943m   27.5057m 
  475.62525m  700.0000m   40.1175n  672.6357m   27.3643m 
  475.72525m  700.0000m   39.9192n  672.7771m   27.2229m 
  475.82525m  700.0000m   39.7219n  672.9186m   27.0814m 
  475.92525m  700.0000m   39.5258n  673.0600m   26.9400m 
  476.02525m  700.0000m   39.3309n  673.2014m   26.7986m 
  476.12525m  700.0000m   39.1371n  673.3428m   26.6572m 
  476.22525m  700.0000m   38.9444n  673.4843m   26.5158m 
  476.32525m  700.0000m   38.7528n  673.6257m   26.3743m 
  476.42525m  700.0000m   38.5623n  673.7671m   26.2329m 
  476.52525m  700.0000m   38.3729n  673.9085m   26.0915m 
  476.62525m  700.0000m   38.1847n  674.0499m   25.9501m 
  476.72525m  700.0000m   37.9975n  674.1914m   25.8087m 
  476.82525m  700.0000m   37.8114n  674.3328m   25.6672m 
  476.92525m  700.0000m   37.6264n  674.4742m   25.5258m 
  477.02525m  700.0000m   37.4424n  674.6156m   25.3844m 
  477.12525m  700.0000m   37.2595n  674.7570m   25.2430m 
  477.22525m  700.0000m   37.0777n  674.8985m   25.1015m 
  477.32525m  700.0000m   36.8969n  675.0399m   24.9601m 
  477.42525m  700.0000m   36.7172n  675.1813m   24.8187m 
  477.52525m  700.0000m   36.5385n  675.3227m   24.6773m 
  477.62525m  700.0000m   36.3609n  675.4641m   24.5359m 
  477.72525m  700.0000m   36.1843n  675.6056m   24.3944m 
  477.82525m  700.0000m   36.0087n  675.7470m   24.2530m 
  477.92525m  700.0000m   35.8341n  675.8884m   24.1116m 
  478.02525m  700.0000m   35.6605n  676.0298m   23.9702m 
  478.12525m  700.0000m   35.4880n  676.1713m   23.8288m 
  478.22525m  700.0000m   35.3164n  676.3127m   23.6873m 
  478.32525m  700.0000m   35.1458n  676.4541m   23.5459m 
  478.42525m  700.0000m   34.9763n  676.5955m   23.4045m 
  478.52525m  700.0000m   34.8077n  676.7369m   23.2631m 
  478.62525m  700.0000m   34.6400n  676.8784m   23.1216m 
  478.72525m  700.0000m   34.4734n  677.0198m   22.9802m 
  478.82525m  700.0000m   34.3077n  677.1612m   22.8388m 
  478.92525m  700.0000m   34.1430n  677.3026m   22.6974m 
  479.02525m  700.0000m   33.9792n  677.4440m   22.5560m 
  479.12525m  700.0000m   33.8164n  677.5855m   22.4145m 
  479.22525m  700.0000m   33.6545n  677.7269m   22.2731m 
  479.32525m  700.0000m   33.4936n  677.8683m   22.1317m 
  479.42525m  700.0000m   33.3335n  678.0097m   21.9903m 
  479.52525m  700.0000m   33.1745n  678.1511m   21.8489m 
  479.62525m  700.0000m   33.0163n  678.2926m   21.7074m 
  479.72525m  700.0000m   32.8591n  678.4340m   21.5660m 
  479.82525m  700.0000m   32.7027n  678.5754m   21.4246m 
  479.92525m  700.0000m   32.5473n  678.7168m   21.2832m 
  480.02525m  700.0000m   32.3928n  678.8583m   21.1417m 
  480.12525m  700.0000m   32.2391n  678.9997m   21.0003m 
  480.22525m  700.0000m   32.0864n  679.1411m   20.8589m 
  480.32525m  700.0000m   31.9345n  679.2825m   20.7175m 
  480.42525m  700.0000m   31.7835n  679.4239m   20.5761m 
  480.52525m  700.0000m   31.6334n  679.5654m   20.4346m 
  480.62525m  700.0000m   31.4842n  679.7068m   20.2932m 
  480.72525m  700.0000m   31.3358n  679.8482m   20.1518m 
  480.82525m  700.0000m   31.1883n  679.9896m   20.0104m 
  480.92525m  700.0000m   31.0416n  680.1310m   19.8690m 
  481.02525m  700.0000m   30.8958n  680.2725m   19.7275m 
  481.12525m  700.0000m   30.7509n  680.4139m   19.5861m 
  481.22525m  700.0000m   30.6067n  680.5553m   19.4447m 
  481.32525m  700.0000m   30.4634n  680.6967m   19.3033m 
  481.42525m  700.0000m   30.3210n  680.8382m   19.1619m 
  481.52525m  700.0000m   30.1793n  680.9796m   19.0204m 
  481.62525m  700.0000m   30.0385n  681.1210m   18.8790m 
  481.72525m  700.0000m   29.8985n  681.2624m   18.7376m 
  481.82525m  700.0000m   29.7593n  681.4038m   18.5962m 
  481.92525m  700.0000m   29.6209n  681.5453m   18.4547m 
  482.02525m  700.0000m   29.4834n  681.6867m   18.3133m 
  482.12525m  700.0000m   29.3466n  681.8281m   18.1719m 
  482.22525m  700.0000m   29.2106n  681.9695m   18.0305m 
  482.32525m  700.0000m   29.0754n  682.1109m   17.8891m 
  482.42525m  700.0000m   28.9409n  682.2524m   17.7476m 
  482.52525m  700.0000m   28.8073n  682.3938m   17.6062m 
  482.62525m  700.0000m   28.6744n  682.5352m   17.4648m 
  482.72525m  700.0000m   28.5423n  682.6766m   17.3234m 
  482.82525m  700.0000m   28.4110n  682.8180m   17.1820m 
  482.92525m  700.0000m   28.2804n  682.9595m   17.0405m 
  483.02525m  700.0000m   28.1506n  683.1009m   16.8991m 
  483.12525m  700.0000m   28.0215n  683.2423m   16.7577m 
  483.22525m  700.0000m   27.8932n  683.3837m   16.6163m 
  483.32525m  700.0000m   27.7656n  683.5252m   16.4748m 
  483.42525m  700.0000m   27.6388n  683.6666m   16.3334m 
  483.52525m  700.0000m   27.5127n  683.8080m   16.1920m 
  483.62525m  700.0000m   27.3873n  683.9494m   16.0506m 
  483.72525m  700.0000m   27.2627n  684.0908m   15.9092m 
  483.82525m  700.0000m   27.1387n  684.2323m   15.7677m 
  483.92525m  700.0000m   27.0155n  684.3737m   15.6263m 
  484.02525m  700.0000m   26.8930n  684.5151m   15.4849m 
  484.12525m  700.0000m   26.7712n  684.6565m   15.3435m 
  484.22525m  700.0000m   26.6502n  684.7979m   15.2021m 
  484.32525m  700.0000m   26.5298n  684.9394m   15.0606m 
  484.42525m  700.0000m   26.4101n  685.0808m   14.9192m 
  484.52525m  700.0000m   26.2911n  685.2222m   14.7778m 
  484.62525m  700.0000m   26.1728n  685.3636m   14.6364m 
  484.72525m  700.0000m   26.0552n  685.5051m   14.4950m 
  484.82525m  700.0000m   25.9383n  685.6465m   14.3535m 
  484.92525m  700.0000m   25.8220n  685.7879m   14.2121m 
  485.02525m  700.0000m   25.7064n  685.9293m   14.0707m 
  485.12525m  700.0000m   25.5915n  686.0707m   13.9293m 
  485.22525m  700.0000m   25.4773n  686.2122m   13.7878m 
  485.32525m  700.0000m   25.3637n  686.3536m   13.6464m 
  485.42525m  700.0000m   25.2508n  686.4950m   13.5050m 
  485.52525m  700.0000m   25.1385n  686.6364m   13.3636m 
  485.62525m  700.0000m   25.0269n  686.7778m   13.2222m 
  485.72525m  700.0000m   24.9159n  686.9193m   13.0807m 
  485.82525m  700.0000m   24.8056n  687.0607m   12.9393m 
  485.92525m  700.0000m   24.6959n  687.2021m   12.7979m 
  486.02525m  700.0000m   24.5868n  687.3435m   12.6565m 
  486.12525m  700.0000m   24.4784n  687.4850m   12.5151m 
  486.22525m  700.0000m   24.3706n  687.6264m   12.3736m 
  486.32525m  700.0000m   24.2634n  687.7678m   12.2322m 
  486.42525m  700.0000m   24.1569n  687.9092m   12.0908m 
  486.52525m  700.0000m   24.0509n  688.0506m   11.9494m 
  486.62525m  700.0000m   23.9456n  688.1921m   11.8079m 
  486.72525m  700.0000m   23.8409n  688.3335m   11.6665m 
  486.82525m  700.0000m   23.7368n  688.4749m   11.5251m 
  486.92525m  700.0000m   23.6333n  688.6163m   11.3837m 
  487.02525m  700.0000m   23.5304n  688.7577m   11.2423m 
  487.12525m  700.0000m   23.4281n  688.8992m   11.1008m 
  487.22525m  700.0000m   23.3264n  689.0406m   10.9594m 
  487.32525m  700.0000m   23.2253n  689.1820m   10.8180m 
  487.42525m  700.0000m   23.1247n  689.3234m   10.6766m 
  487.52525m  700.0000m   23.0248n  689.4648m   10.5352m 
  487.62525m  700.0000m   22.9254n  689.6063m   10.3937m 
  487.72525m  700.0000m   22.8266n  689.7477m   10.2523m 
  487.82525m  700.0000m   22.7284n  689.8891m   10.1109m 
  487.92525m  700.0000m   22.6307n  690.0305m    9.9695m 
  488.02525m  700.0000m   22.5336n  690.1720m    9.8280m 
  488.12525m  700.0000m   22.4371n  690.3134m    9.6866m 
  488.22525m  700.0000m   22.3411n  690.4548m    9.5452m 
  488.32525m  700.0000m   22.2457n  690.5962m    9.4038m 
  488.42525m  700.0000m   22.1509n  690.7376m    9.2624m 
  488.52525m  700.0000m   22.0566n  690.8791m    9.1209m 
  488.62525m  700.0000m   21.9628n  691.0205m    8.9795m 
  488.72525m  700.0000m   21.8696n  691.1619m    8.8381m 
  488.82525m  700.0000m   21.7769n  691.3033m    8.6967m 
  488.92525m  700.0000m   21.6848n  691.4447m    8.5553m 
  489.02525m  700.0000m   21.5931n  691.5862m    8.4138m 
  489.12525m  700.0000m   21.5021n  691.7276m    8.2724m 
  489.22525m  700.0000m   21.4115n  691.8690m    8.1310m 
  489.32525m  700.0000m   21.3215n  692.0104m    7.9896m 
  489.42525m  700.0000m   21.2320n  692.1519m    7.8482m 
  489.52525m  700.0000m   21.1430n  692.2933m    7.7067m 
  489.62525m  700.0000m   21.0546n  692.4347m    7.5653m 
  489.72525m  700.0000m   20.9666n  692.5761m    7.4239m 
  489.82525m  700.0000m   20.8792n  692.7175m    7.2825m 
  489.92525m  700.0000m   20.7922n  692.8590m    7.1410m 
  490.02525m  700.0000m   20.7058n  693.0004m    6.9996m 
  490.12525m  700.0000m   20.6199n  693.1418m    6.8582m 
  490.22525m  700.0000m   20.5345n  693.2832m    6.7168m 
  490.32525m  700.0000m   20.4495n  693.4246m    6.5754m 
  490.42525m  700.0000m   20.3651n  693.5661m    6.4339m 
  490.52525m  700.0000m   20.2811n  693.7075m    6.2925m 
  490.62525m  700.0000m   20.1977n  693.8489m    6.1511m 
  490.72525m  700.0000m   20.1147n  693.9903m    6.0097m 
  490.82525m  700.0000m   20.0322n  694.1317m    5.8683m 
  490.92525m  700.0000m   19.9502n  694.2732m    5.7268m 
  491.02525m  700.0000m   19.8686n  694.4146m    5.5854m 
  491.12525m  700.0000m   19.7876n  694.5560m    5.4440m 
  491.22525m  700.0000m   19.7070n  694.6974m    5.3026m 
  491.32525m  700.0000m   19.6268n  694.8389m    5.1611m 
  491.42525m  700.0000m   19.5472n  694.9803m    5.0197m 
  491.52525m  700.0000m   19.4680n  695.1217m    4.8783m 
  491.62525m  700.0000m   19.3892n  695.2631m    4.7369m 
  491.72525m  700.0000m   19.3109n  695.4045m    4.5955m 
  491.82525m  700.0000m   19.2331n  695.5460m    4.4540m 
  491.92525m  700.0000m   19.1557n  695.6874m    4.3126m 
  492.02525m  700.0000m   19.0788n  695.8288m    4.1712m 
  492.12525m  700.0000m   19.0023n  695.9702m    4.0298m 
  492.22525m  700.0000m   18.9263n  696.1116m    3.8884m 
  492.32525m  700.0000m   18.8507n  696.2531m    3.7469m 
  492.42525m  700.0000m   18.7755n  696.3945m    3.6055m 
  492.52525m  700.0000m   18.7008n  696.5359m    3.4641m 
  492.62525m  700.0000m   18.6265n  696.6773m    3.3227m 
  492.72525m  700.0000m   18.5526n  696.8188m    3.1812m 
  492.82525m  700.0000m   18.4792n  696.9602m    3.0398m 
  492.92525m  700.0000m   18.4062n  697.1016m    2.8984m 
  493.02525m  700.0000m   18.3336n  697.2430m    2.7570m 
  493.12525m  700.0000m   18.2615n  697.3844m    2.6156m 
  493.22525m  700.0000m   18.1897n  697.5259m    2.4741m 
  493.32525m  700.0000m   18.1184n  697.6673m    2.3327m 
  493.42525m  700.0000m   18.0475n  697.8087m    2.1913m 
  493.52525m  700.0000m   17.9770n  697.9501m    2.0499m 
  493.62525m  700.0000m   17.9069n  698.0915m    1.9085m 
  493.72525m  700.0000m   17.8372n  698.2330m    1.7670m 
  493.82525m  700.0000m   17.7680n  698.3744m    1.6256m 
  493.92525m  700.0000m   17.6991n  698.5158m    1.4842m 
  494.02525m  700.0000m   17.6306n  698.6572m    1.3428m 
  494.12525m  700.0000m   17.5626n  698.7987m    1.2013m 
  494.22525m  700.0000m   17.4949n  698.9401m    1.0599m 
  494.32525m  700.0000m   17.4276n  699.0815m  918.5073u 
  494.42525m  700.0000m   17.3607n  699.2229m  777.0860u 
  494.52525m  700.0000m   17.2942n  699.3643m  635.6647u 
  494.62525m  700.0000m   17.2281n  699.5058m  494.2434u 
  494.72525m  700.0000m   17.1624n  699.6472m  352.8221u 
  494.82525m  700.0000m   17.0970n  699.7886m  211.4008u 
  494.92525m  700.0000m   17.0321n  699.9300m   69.9795u 
y
 max_1= 436.7227m    at=-253.2747m
             from=-494.9747m    to= 494.9253m
 max_2= 436.7226m    at= 253.3253m
             from=-494.9747m    to= 494.9253m
 snm= 308.8095m
1****** HSPICE -- Q-2020.03-SP2-2 linux64 (Nov  1 2020) ******                  
 ******  
 .title noise margin in hold operation

 ****** operating point information tnom=  25.000 temp=  25.000 ******
 ****** operating point status is all       simulation time is     0.     
    node    =voltage      node    =voltage      node    =voltage

 +0:bl      = 700.0000m 0:blb     = 700.0000m 0:gl      = 360.9698m
 +0:gr      = 360.9698m 0:q       = 360.9698m 0:qb      = 360.9698m
 +0:u       =   0.      0:v1      = 510.4884m 0:v2      = 510.4884m
 +0:vdd     = 700.0000m 0:wl      =   0.      0:x       = 655.1256m


 **** voltage sources

 subckt                                   
 element  0:vu       0:vvdd     0:vwl     
  volts      0.       700.0000m    0.     
  current    0.      -955.4810n  566.4415f
  power      0.       668.8367n    0.     

     total voltage source power dissipation=  668.8367n       watts



 **** voltage-controlled voltage sources


 subckt                                              
 element  0:eli      0:ev1      0:eri      0:ev2     
  volts    360.9698m  510.4884m  360.9698m  510.4884m
  current    2.1961f    0.         2.1961f    0.     





 **** mosfets


 subckt                                                                    
 element  0:mpr      0:mnr      0:mpl      0:mnl      0:mnpr     0:mnpl    
 model    0:pmos_sra 0:nmos_sra 0:pmos_sra 0:nmos_sra 0:nmos_sra 0:nmos_sra
 region   Saturation Subth      Saturation Subth      Cutoff     Cutoff    
  id      -477.7405n  477.7404n -477.7405n  477.7404n    1.9432f    1.9432f
  ibs        0.         0.         0.         0.         0.         0.     
  ibd        0.         0.         0.         0.         0.         0.     
  vgs     -339.0302m  360.9698m -339.0302m  360.9698m -360.9698m -360.9698m
  vds     -339.0302m  360.9698m -339.0302m  360.9698m  339.0302m  339.0302m
  vbs      -44.8744m  655.1256m  -44.8744m  655.1256m  294.1558m  294.1558m
  vth     -329.6839m  410.5914m -329.6839m  410.5914m  410.6911m  410.6911m
  vdsat   -102.2057m   76.9973m -102.2057m   76.9973m   71.0890m   71.0890m
  vod       -9.3463m  -49.6216m   -9.3463m  -49.6216m -771.6608m -771.6608m
  beta       1.1164m    2.9667m    1.1164m    2.9667m    2.9667m    2.9667m
  gam eff    0.         0.         0.         0.         0.         0.     
  gm        11.7449u   15.8318u   11.7449u   15.8318u  1.678e-20  1.678e-20
  gds      241.0330n  227.8606n  241.0330n  227.8606n  465.6877a  465.6877a
  gmb        4.4987p   11.7520p    4.4987p   11.7520p  2.743e-20  2.743e-20
  cdtot      9.5375a   19.1387a    9.5375a   19.1387a   19.1400a   19.1400a
  cgtot     29.4587a   45.3186a   29.4587a   45.3186a   38.2800a   38.2800a
  cstot     16.2556a   23.9070a   16.2556a   23.9070a   19.1400a   19.1400a
  cbtot      0.         0.         0.         0.         0.         0.     
  cgs       20.0056a   26.2015a   20.0056a   26.2015a   19.1400a   19.1400a
  cgd        9.4531a   19.1171a    9.4531a   19.1171a   19.1400a   19.1400a




          ***** job concluded
 ******  
 .title noise margin in hold operation

 ****** job statistics summary tnom=  25.000 temp=  25.000 ******
  
 ******  Machine Information  ******
 CPU:
 model name	: AMD EPYC 7713 64-Core Processor
 cpu MHz	: 2000.000
  
 OS:
 Linux version 3.10.0-1160.88.1.el7.x86_64 (mockbuild@kbuilder.bsys.centos.org) (gcc version 4.8.5 20150623 (Red Hat 4.8.5-44) (GCC) ) #1 SMP Tue Mar 7 15:41:52 UTC 2023


  ******  HSPICE Threads Information  ******

  Command Line Threads Count :     1
  Available CPU Count        :   256
  Actual Threads Count       :     1


  ******  Circuit Statistics  ******
  # nodes       =      13 # elements   =      15
  # resistors   =       0 # capacitors =       2 # inductors   =       0
  # mutual_inds =       0 # vccs       =       0 # vcvs        =       4
  # cccs        =       0 # ccvs       =       0 # volt_srcs   =       3
  # curr_srcs   =       0 # diodes     =       0 # bjts        =       0
  # jfets       =       0 # mosfets    =       6 # U elements  =       0
  # T elements  =       0 # W elements =       0 # B elements  =       0
  # S elements  =       0 # P elements =       0 # va device   =       0
  # vector_srcs =       0 # N elements =       0


  ******  Runtime Statistics (seconds)  ******

  analysis           time    # points   tot. iter  conv.iter
  op point           0.01           1           9
  dc sweep           0.77        9900       29712
  readin             0.02
  errchk             0.00
  setup              0.00
  output             0.00


           peak memory used        406.03 megabytes
           total cpu time            0.87 seconds
           total elapsed time        1.09 seconds
           job started at     13:40:26 03/23/2025
           job ended   at     13:40:27 03/23/2025
           job total runtime         1.09 seconds


 lic: Release hspice token(s) 
 lic: total license checkout elapse time:        0.21(s)
