 ****** HSPICE -- Q-2020.03-SP2-2 linux64 (Nov  1 2020) ******                  
  Copyright (c) 1986 - 2025 by Synopsys, Inc. All Rights Reserved.              
  This software and the associated documentation are proprietary
  to Synopsys, Inc. This software may only be used in accordance
  with the terms and conditions of a written license agreement with
  Synopsys, Inc. All other use, reproduction, or distribution of
  this software is strictly prohibited.
  Input File: SRAM_RSNM_TT_DifSupply.sp                                         
  Command line options: /RAID2/cad/synopsys/hspice/2020.03-sp2-2/hspice/linux64/hspice -i SRAM_RSNM_TT_DifSupply.sp -o SRAM_RSNM_TT_DifSupply.lis
  Start time: Sun Mar 23 23:02:41 2025
 lic:  
 lic: FLEXlm: SDK_12.6 
 lic: USER:   es25MCS042           HOSTNAME: ee28 
 lic: HOSTID: "d85ed3efc19a"       PID:      209392 
 lic: Using FLEXlm license file: 
 lic: 26585@lshc 
 lic: Checkout 1 hspice 
 lic: License/Maintenance for hspice will expire on 14-may-2025/2024.09 
 lic: 196(in_use)/1100(total) FLOATING license(s) on SERVER 26585@lshc 
 lic:   
  
      
             
 Warning:'Floating bulk' occurs 1 times
 Summary of floating bulk:
 -----------------------
 |Node      |Device    |
 |----------+----------|
 |x         |mpr       |
 -----------------------
              
 *****************************************************************
 ******  option summary
 ******
 runlvl  = 3         bypass  = 2.0000    
 ******
 .title noise margin in hold operation

 ****** dc transfer curves tnom=  25.000 temp=  25.000 ******
x

 volt         voltage    voltage    voltage    voltage   
             q          qb         gl         gr         
 -494.97475m  105.5790m  700.0000m  -15.0235n  805.5790m 
 -494.87475m  105.5899m  700.0000m  141.4063u  805.4485m 
 -494.77475m  105.6008m  700.0000m  282.8276u  805.3180m 
 -494.67475m  105.6117m  700.0000m  424.2488u  805.1874m 
 -494.57475m  105.6226m  700.0000m  565.6701u  805.0569m 
 -494.47475m  105.6335m  700.0000m  707.0914u  804.9264m 
 -494.37475m  105.6445m  700.0000m  848.5127u  804.7959m 
 -494.27475m  105.6554m  700.0000m  989.9340u  804.6655m 
 -494.17475m  105.6664m  700.0000m    1.1314m  804.5350m 
 -494.07475m  105.6773m  700.0000m    1.2728m  804.4045m 
 -493.97475m  105.6883m  700.0000m    1.4142m  804.2741m 
 -493.87475m  105.6992m  700.0000m    1.5556m  804.1436m 
 -493.77475m  105.7102m  700.0000m    1.6970m  804.0132m 
 -493.67475m  105.7212m  700.0000m    1.8385m  803.8827m 
 -493.57475m  105.7322m  700.0000m    1.9799m  803.7523m 
 -493.47475m  105.7432m  700.0000m    2.1213m  803.6219m 
 -493.37475m  105.7542m  700.0000m    2.2627m  803.4915m 
 -493.27475m  105.7652m  700.0000m    2.4041m  803.3611m 
 -493.17475m  105.7763m  700.0000m    2.5456m  803.2307m 
 -493.07475m  105.7873m  700.0000m    2.6870m  803.1003m 
 -492.97475m  105.7983m  700.0000m    2.8284m  802.9699m 
 -492.87475m  105.8094m  700.0000m    2.9698m  802.8395m 
 -492.77475m  105.8204m  700.0000m    3.1113m  802.7092m 
 -492.67475m  105.8315m  700.0000m    3.2527m  802.5788m 
 -492.57475m  105.8426m  700.0000m    3.3941m  802.4485m 
 -492.47475m  105.8537m  700.0000m    3.5355m  802.3181m 
 -492.37475m  105.8647m  700.0000m    3.6769m  802.1878m 
 -492.27475m  105.8758m  700.0000m    3.8184m  802.0575m 
 -492.17475m  105.8869m  700.0000m    3.9598m  801.9271m 
 -492.07475m  105.8980m  700.0000m    4.1012m  801.7968m 
 -491.97475m  105.9092m  700.0000m    4.2426m  801.6665m 
 -491.87475m  105.9203m  700.0000m    4.3840m  801.5362m 
 -491.77475m  105.9314m  700.0000m    4.5255m  801.4059m 
 -491.67475m  105.9426m  700.0000m    4.6669m  801.2757m 
 -491.57475m  105.9537m  700.0000m    4.8083m  801.1454m 
 -491.47475m  105.9649m  700.0000m    4.9497m  801.0151m 
 -491.37475m  105.9760m  700.0000m    5.0912m  800.8849m 
 -491.27475m  105.9872m  700.0000m    5.2326m  800.7546m 
 -491.17475m  105.9984m  700.0000m    5.3740m  800.6244m 
 -491.07475m  106.0096m  700.0000m    5.5154m  800.4942m 
 -490.97475m  106.0208m  700.0000m    5.6568m  800.3639m 
 -490.87475m  106.0320m  700.0000m    5.7983m  800.2337m 
 -490.77475m  106.0432m  700.0000m    5.9397m  800.1035m 
 -490.67475m  106.0544m  700.0000m    6.0811m  799.9733m 
 -490.57475m  106.0657m  700.0000m    6.2225m  799.8431m 
 -490.47475m  106.0769m  700.0000m    6.3639m  799.7129m 
 -490.37475m  106.0882m  700.0000m    6.5054m  799.5828m 
 -490.27475m  106.0994m  700.0000m    6.6468m  799.4526m 
 -490.17475m  106.1107m  700.0000m    6.7882m  799.3224m 
 -490.07475m  106.1219m  700.0000m    6.9296m  799.1923m 
 -489.97475m  106.1332m  700.0000m    7.0710m  799.0622m 
 -489.87475m  106.1445m  700.0000m    7.2125m  798.9320m 
 -489.77475m  106.1558m  700.0000m    7.3539m  798.8019m 
 -489.67475m  106.1671m  700.0000m    7.4953m  798.6718m 
 -489.57475m  106.1784m  700.0000m    7.6367m  798.5417m 
 -489.47475m  106.1897m  700.0000m    7.7782m  798.4116m 
 -489.37475m  106.2011m  700.0000m    7.9196m  798.2815m 
 -489.27475m  106.2124m  700.0000m    8.0610m  798.1514m 
 -489.17475m  106.2237m  700.0000m    8.2024m  798.0213m 
 -489.07475m  106.2351m  700.0000m    8.3438m  797.8912m 
 -488.97475m  106.2465m  700.0000m    8.4853m  797.7612m 
 -488.87475m  106.2578m  700.0000m    8.6267m  797.6311m 
 -488.77475m  106.2692m  700.0000m    8.7681m  797.5011m 
 -488.67475m  106.2806m  700.0000m    8.9095m  797.3710m 
 -488.57475m  106.2920m  700.0000m    9.0509m  797.2410m 
 -488.47475m  106.3034m  700.0000m    9.1924m  797.1110m 
 -488.37475m  106.3148m  700.0000m    9.3338m  796.9810m 
 -488.27475m  106.3262m  700.0000m    9.4752m  796.8510m 
 -488.17475m  106.3376m  700.0000m    9.6166m  796.7210m 
 -488.07475m  106.3491m  700.0000m    9.7581m  796.5910m 
 -487.97475m  106.3605m  700.0000m    9.8995m  796.4610m 
 -487.87475m  106.3720m  700.0000m   10.0409m  796.3310m 
 -487.77475m  106.3834m  700.0000m   10.1823m  796.2011m 
 -487.67475m  106.3949m  700.0000m   10.3237m  796.0711m 
 -487.57475m  106.4064m  700.0000m   10.4652m  795.9412m 
 -487.47475m  106.4178m  700.0000m   10.6066m  795.8112m 
 -487.37475m  106.4293m  700.0000m   10.7480m  795.6813m 
 -487.27475m  106.4408m  700.0000m   10.8894m  795.5514m 
 -487.17475m  106.4523m  700.0000m   11.0308m  795.4215m 
 -487.07475m  106.4638m  700.0000m   11.1723m  795.2916m 
 -486.97475m  106.4754m  700.0000m   11.3137m  795.1617m 
 -486.87475m  106.4869m  700.0000m   11.4551m  795.0318m 
 -486.77475m  106.4984m  700.0000m   11.5965m  794.9019m 
 -486.67475m  106.5100m  700.0000m   11.7380m  794.7720m 
 -486.57475m  106.5215m  700.0000m   11.8794m  794.6422m 
 -486.47475m  106.5331m  700.0000m   12.0208m  794.5123m 
 -486.37475m  106.5447m  700.0000m   12.1622m  794.3825m 
 -486.27475m  106.5563m  700.0000m   12.3036m  794.2526m 
 -486.17475m  106.5679m  700.0000m   12.4451m  794.1228m 
 -486.07475m  106.5795m  700.0000m   12.5865m  793.9930m 
 -485.97475m  106.5911m  700.0000m   12.7279m  793.8631m 
 -485.87475m  106.6027m  700.0000m   12.8693m  793.7333m 
 -485.77475m  106.6143m  700.0000m   13.0107m  793.6035m 
 -485.67475m  106.6259m  700.0000m   13.1522m  793.4737m 
 -485.57475m  106.6376m  700.0000m   13.2936m  793.3440m 
 -485.47475m  106.6492m  700.0000m   13.4350m  793.2142m 
 -485.37475m  106.6609m  700.0000m   13.5764m  793.0844m 
 -485.27475m  106.6725m  700.0000m   13.7178m  792.9547m 
 -485.17475m  106.6842m  700.0000m   13.8593m  792.8249m 
 -485.07475m  106.6959m  700.0000m   14.0007m  792.6952m 
 -484.97475m  106.7076m  700.0000m   14.1421m  792.5655m 
 -484.87475m  106.7193m  700.0000m   14.2835m  792.4357m 
 -484.77475m  106.7310m  700.0000m   14.4250m  792.3060m 
 -484.67475m  106.7427m  700.0000m   14.5664m  792.1763m 
 -484.57475m  106.7544m  700.0000m   14.7078m  792.0466m 
 -484.47475m  106.7662m  700.0000m   14.8492m  791.9169m 
 -484.37475m  106.7779m  700.0000m   14.9906m  791.7873m 
 -484.27475m  106.7897m  700.0000m   15.1321m  791.6576m 
 -484.17475m  106.8014m  700.0000m   15.2735m  791.5279m 
 -484.07475m  106.8132m  700.0000m   15.4149m  791.3983m 
 -483.97475m  106.8250m  700.0000m   15.5563m  791.2686m 
 -483.87475m  106.8367m  700.0000m   15.6977m  791.1390m 
 -483.77475m  106.8485m  700.0000m   15.8392m  791.0093m 
 -483.67475m  106.8603m  700.0000m   15.9806m  790.8797m 
 -483.57475m  106.8722m  700.0000m   16.1220m  790.7501m 
 -483.47475m  106.8840m  700.0000m   16.2634m  790.6205m 
 -483.37475m  106.8958m  700.0000m   16.4049m  790.4909m 
 -483.27475m  106.9076m  700.0000m   16.5463m  790.3613m 
 -483.17475m  106.9195m  700.0000m   16.6877m  790.2318m 
 -483.07475m  106.9313m  700.0000m   16.8291m  790.1022m 
 -482.97475m  106.9432m  700.0000m   16.9705m  789.9726m 
 -482.87475m  106.9551m  700.0000m   17.1120m  789.8431m 
 -482.77475m  106.9669m  700.0000m   17.2534m  789.7135m 
 -482.67475m  106.9788m  700.0000m   17.3948m  789.5840m 
 -482.57475m  106.9907m  700.0000m   17.5362m  789.4545m 
 -482.47475m  107.0026m  700.0000m   17.6776m  789.3249m 
 -482.37475m  107.0145m  700.0000m   17.8191m  789.1954m 
 -482.27475m  107.0264m  700.0000m   17.9605m  789.0659m 
 -482.17475m  107.0384m  700.0000m   18.1019m  788.9364m 
 -482.07475m  107.0503m  700.0000m   18.2433m  788.8070m 
 -481.97475m  107.0623m  700.0000m   18.3847m  788.6775m 
 -481.87475m  107.0742m  700.0000m   18.5262m  788.5480m 
 -481.77475m  107.0862m  700.0000m   18.6676m  788.4186m 
 -481.67475m  107.0982m  700.0000m   18.8090m  788.2891m 
 -481.57475m  107.1101m  700.0000m   18.9504m  788.1597m 
 -481.47475m  107.1221m  700.0000m   19.0919m  788.0302m 
 -481.37475m  107.1341m  700.0000m   19.2333m  787.9008m 
 -481.27475m  107.1461m  700.0000m   19.3747m  787.7714m 
 -481.17475m  107.1581m  700.0000m   19.5161m  787.6420m 
 -481.07475m  107.1702m  700.0000m   19.6575m  787.5126m 
 -480.97475m  107.1822m  700.0000m   19.7990m  787.3832m 
 -480.87475m  107.1942m  700.0000m   19.9404m  787.2538m 
 -480.77475m  107.2063m  700.0000m   20.0818m  787.1245m 
 -480.67475m  107.2184m  700.0000m   20.2232m  786.9951m 
 -480.57475m  107.2304m  700.0000m   20.3646m  786.8658m 
 -480.47475m  107.2425m  700.0000m   20.5061m  786.7364m 
 -480.37475m  107.2546m  700.0000m   20.6475m  786.6071m 
 -480.27475m  107.2667m  700.0000m   20.7889m  786.4777m 
 -480.17475m  107.2788m  700.0000m   20.9303m  786.3484m 
 -480.07475m  107.2909m  700.0000m   21.0718m  786.2191m 
 -479.97475m  107.3030m  700.0000m   21.2132m  786.0898m 
 -479.87475m  107.3152m  700.0000m   21.3546m  785.9605m 
 -479.77475m  107.3273m  700.0000m   21.4960m  785.8312m 
 -479.67475m  107.3394m  700.0000m   21.6374m  785.7020m 
 -479.57475m  107.3516m  700.0000m   21.7789m  785.5727m 
 -479.47475m  107.3638m  700.0000m   21.9203m  785.4434m 
 -479.37475m  107.3759m  700.0000m   22.0617m  785.3142m 
 -479.27475m  107.3881m  700.0000m   22.2031m  785.1850m 
 -479.17475m  107.4003m  700.0000m   22.3445m  785.0557m 
 -479.07475m  107.4125m  700.0000m   22.4860m  784.9265m 
 -478.97475m  107.4247m  700.0000m   22.6274m  784.7973m 
 -478.87475m  107.4369m  700.0000m   22.7688m  784.6681m 
 -478.77475m  107.4492m  700.0000m   22.9102m  784.5389m 
 -478.67475m  107.4614m  700.0000m   23.0516m  784.4097m 
 -478.57475m  107.4736m  700.0000m   23.1931m  784.2805m 
 -478.47475m  107.4859m  700.0000m   23.3345m  784.1514m 
 -478.37475m  107.4982m  700.0000m   23.4759m  784.0222m 
 -478.27475m  107.5104m  700.0000m   23.6173m  783.8931m 
 -478.17475m  107.5227m  700.0000m   23.7588m  783.7639m 
 -478.07475m  107.5350m  700.0000m   23.9002m  783.6348m 
 -477.97475m  107.5473m  700.0000m   24.0416m  783.5057m 
 -477.87475m  107.5596m  700.0000m   24.1830m  783.3766m 
 -477.77475m  107.5719m  700.0000m   24.3244m  783.2475m 
 -477.67475m  107.5842m  700.0000m   24.4659m  783.1184m 
 -477.57475m  107.5966m  700.0000m   24.6073m  782.9893m 
 -477.47475m  107.6089m  700.0000m   24.7487m  782.8602m 
 -477.37475m  107.6213m  700.0000m   24.8901m  782.7311m 
 -477.27475m  107.6336m  700.0000m   25.0315m  782.6021m 
 -477.17475m  107.6460m  700.0000m   25.1730m  782.4730m 
 -477.07475m  107.6584m  700.0000m   25.3144m  782.3440m 
 -476.97475m  107.6708m  700.0000m   25.4558m  782.2149m 
 -476.87475m  107.6832m  700.0000m   25.5972m  782.0859m 
 -476.77475m  107.6956m  700.0000m   25.7387m  781.9569m 
 -476.67475m  107.7080m  700.0000m   25.8801m  781.8279m 
 -476.57475m  107.7204m  700.0000m   26.0215m  781.6989m 
 -476.47475m  107.7329m  700.0000m   26.1629m  781.5699m 
 -476.37475m  107.7453m  700.0000m   26.3043m  781.4409m 
 -476.27475m  107.7578m  700.0000m   26.4458m  781.3120m 
 -476.17475m  107.7702m  700.0000m   26.5872m  781.1830m 
 -476.07475m  107.7827m  700.0000m   26.7286m  781.0540m 
 -475.97475m  107.7952m  700.0000m   26.8700m  780.9251m 
 -475.87475m  107.8077m  700.0000m   27.0114m  780.7962m 
 -475.77475m  107.8201m  700.0000m   27.1529m  780.6672m 
 -475.67475m  107.8327m  700.0000m   27.2943m  780.5383m 
 -475.57475m  107.8452m  700.0000m   27.4357m  780.4094m 
 -475.47475m  107.8577m  700.0000m   27.5771m  780.2805m 
 -475.37475m  107.8702m  700.0000m   27.7185m  780.1516m 
 -475.27475m  107.8828m  700.0000m   27.8600m  780.0228m 
 -475.17475m  107.8953m  700.0000m   28.0014m  779.8939m 
 -475.07475m  107.9079m  700.0000m   28.1428m  779.7650m 
 -474.97475m  107.9205m  700.0000m   28.2842m  779.6362m 
 -474.87475m  107.9330m  700.0000m   28.4257m  779.5073m 
 -474.77475m  107.9456m  700.0000m   28.5671m  779.3785m 
 -474.67475m  107.9582m  700.0000m   28.7085m  779.2497m 
 -474.57475m  107.9708m  700.0000m   28.8499m  779.1209m 
 -474.47475m  107.9835m  700.0000m   28.9913m  778.9921m 
 -474.37475m  107.9961m  700.0000m   29.1328m  778.8633m 
 -474.27475m  108.0087m  700.0000m   29.2742m  778.7345m 
 -474.17475m  108.0214m  700.0000m   29.4156m  778.6057m 
 -474.07475m  108.0340m  700.0000m   29.5570m  778.4769m 
 -473.97475m  108.0467m  700.0000m   29.6984m  778.3482m 
 -473.87475m  108.0593m  700.0000m   29.8399m  778.2194m 
 -473.77475m  108.0720m  700.0000m   29.9813m  778.0907m 
 -473.67475m  108.0847m  700.0000m   30.1227m  777.9620m 
 -473.57475m  108.0974m  700.0000m   30.2641m  777.8333m 
 -473.47475m  108.1101m  700.0000m   30.4055m  777.7045m 
 -473.37475m  108.1229m  700.0000m   30.5470m  777.5758m 
 -473.27475m  108.1356m  700.0000m   30.6884m  777.4471m 
 -473.17475m  108.1483m  700.0000m   30.8298m  777.3185m 
 -473.07475m  108.1611m  700.0000m   30.9712m  777.1898m 
 -472.97475m  108.1738m  700.0000m   31.1127m  777.0611m 
 -472.87475m  108.1866m  700.0000m   31.2541m  776.9325m 
 -472.77475m  108.1994m  700.0000m   31.3955m  776.8038m 
 -472.67475m  108.2121m  700.0000m   31.5369m  776.6752m 
 -472.57475m  108.2249m  700.0000m   31.6783m  776.5466m 
 -472.47475m  108.2377m  700.0000m   31.8198m  776.4179m 
 -472.37475m  108.2506m  700.0000m   31.9612m  776.2893m 
 -472.27475m  108.2634m  700.0000m   32.1026m  776.1607m 
 -472.17475m  108.2762m  700.0000m   32.2440m  776.0321m 
 -472.07475m  108.2891m  700.0000m   32.3854m  775.9036m 
 -471.97475m  108.3019m  700.0000m   32.5269m  775.7750m 
 -471.87475m  108.3148m  700.0000m   32.6683m  775.6464m 
 -471.77475m  108.3276m  700.0000m   32.8097m  775.5179m 
 -471.67475m  108.3405m  700.0000m   32.9511m  775.3893m 
 -471.57475m  108.3534m  700.0000m   33.0925m  775.2608m 
 -471.47475m  108.3663m  700.0000m   33.2340m  775.1323m 
 -471.37475m  108.3792m  700.0000m   33.3754m  775.0038m 
 -471.27475m  108.3921m  700.0000m   33.5168m  774.8753m 
 -471.17475m  108.4050m  700.0000m   33.6582m  774.7468m 
 -471.07475m  108.4180m  700.0000m   33.7997m  774.6183m 
 -470.97475m  108.4309m  700.0000m   33.9411m  774.4898m 
 -470.87475m  108.4439m  700.0000m   34.0825m  774.3613m 
 -470.77475m  108.4568m  699.9999m   34.2239m  774.2329m 
 -470.67475m  108.4698m  699.9999m   34.3653m  774.1044m 
 -470.57475m  108.4828m  699.9999m   34.5068m  773.9760m 
 -470.47475m  108.4958m  699.9999m   34.6482m  773.8476m 
 -470.37475m  108.5088m  699.9999m   34.7896m  773.7191m 
 -470.27475m  108.5218m  699.9999m   34.9310m  773.5907m 
 -470.17475m  108.5348m  699.9999m   35.0724m  773.4623m 
 -470.07475m  108.5479m  699.9999m   35.2139m  773.3339m 
 -469.97475m  108.5609m  699.9999m   35.3553m  773.2056m 
 -469.87475m  108.5740m  699.9999m   35.4967m  773.0772m 
 -469.77475m  108.5870m  699.9999m   35.6381m  772.9488m 
 -469.67475m  108.6001m  699.9999m   35.7796m  772.8205m 
 -469.57475m  108.6132m  699.9999m   35.9210m  772.6921m 
 -469.47475m  108.6263m  699.9999m   36.0624m  772.5638m 
 -469.37475m  108.6394m  699.9999m   36.2038m  772.4355m 
 -469.27475m  108.6525m  699.9999m   36.3452m  772.3072m 
 -469.17475m  108.6656m  699.9999m   36.4867m  772.1789m 
 -469.07475m  108.6787m  699.9999m   36.6281m  772.0506m 
 -468.97475m  108.6919m  699.9999m   36.7695m  771.9223m 
 -468.87475m  108.7050m  699.9999m   36.9109m  771.7940m 
 -468.77475m  108.7182m  699.9999m   37.0523m  771.6658m 
 -468.67475m  108.7313m  699.9999m   37.1938m  771.5375m 
 -468.57475m  108.7445m  699.9999m   37.3352m  771.4093m 
 -468.47475m  108.7577m  699.9999m   37.4766m  771.2810m 
 -468.37475m  108.7709m  699.9999m   37.6180m  771.1528m 
 -468.27475m  108.7841m  699.9999m   37.7594m  771.0246m 
 -468.17475m  108.7973m  699.9999m   37.9009m  770.8964m 
 -468.07475m  108.8105m  699.9999m   38.0423m  770.7682m 
 -467.97475m  108.8238m  699.9999m   38.1837m  770.6400m 
 -467.87475m  108.8370m  699.9999m   38.3251m  770.5118m 
 -467.77475m  108.8503m  699.9999m   38.4666m  770.3837m 
 -467.67475m  108.8635m  699.9999m   38.6080m  770.2555m 
 -467.57475m  108.8768m  699.9999m   38.7494m  770.1274m 
 -467.47475m  108.8901m  699.9999m   38.8908m  769.9992m 
 -467.37475m  108.9034m  699.9999m   39.0322m  769.8711m 
 -467.27475m  108.9167m  699.9999m   39.1737m  769.7430m 
 -467.17475m  108.9300m  699.9999m   39.3151m  769.6149m 
 -467.07475m  108.9433m  699.9999m   39.4565m  769.4868m 
 -466.97475m  108.9567m  699.9999m   39.5979m  769.3587m 
 -466.87475m  108.9700m  699.9999m   39.7393m  769.2306m 
 -466.77475m  108.9834m  699.9999m   39.8808m  769.1025m 
 -466.67475m  108.9967m  699.9999m   40.0222m  768.9745m 
 -466.57475m  109.0101m  699.9999m   40.1636m  768.8464m 
 -466.47475m  109.0235m  699.9999m   40.3050m  768.7184m 
 -466.37475m  109.0369m  699.9999m   40.4464m  768.5904m 
 -466.27475m  109.0503m  699.9999m   40.5879m  768.4623m 
 -466.17475m  109.0637m  699.9999m   40.7293m  768.3343m 
 -466.07475m  109.0771m  699.9999m   40.8707m  768.2063m 
 -465.97475m  109.0905m  699.9999m   41.0121m  768.0783m 
 -465.87475m  109.1040m  699.9999m   41.1535m  767.9504m 
 -465.77475m  109.1174m  699.9999m   41.2950m  767.8224m 
 -465.67475m  109.1309m  699.9999m   41.4364m  767.6944m 
 -465.57475m  109.1444m  699.9999m   41.5778m  767.5665m 
 -465.47475m  109.1579m  699.9999m   41.7192m  767.4386m 
 -465.37475m  109.1713m  699.9999m   41.8607m  767.3106m 
 -465.27475m  109.1848m  699.9999m   42.0021m  767.1827m 
 -465.17475m  109.1984m  699.9999m   42.1435m  767.0548m 
 -465.07475m  109.2119m  699.9999m   42.2849m  766.9269m 
 -464.97475m  109.2254m  699.9999m   42.4263m  766.7990m 
 -464.87475m  109.2390m  699.9999m   42.5678m  766.6711m 
 -464.77475m  109.2525m  699.9999m   42.7092m  766.5433m 
 -464.67475m  109.2661m  699.9999m   42.8506m  766.4154m 
 -464.57475m  109.2796m  699.9999m   42.9920m  766.2876m 
 -464.47475m  109.2932m  699.9999m   43.1334m  766.1597m 
 -464.37475m  109.3068m  699.9999m   43.2749m  766.0319m 
 -464.27475m  109.3204m  699.9999m   43.4163m  765.9041m 
 -464.17475m  109.3340m  699.9999m   43.5577m  765.7763m 
 -464.07475m  109.3477m  699.9999m   43.6991m  765.6485m 
 -463.97475m  109.3613m  699.9999m   43.8405m  765.5207m 
 -463.87475m  109.3749m  699.9999m   43.9820m  765.3929m 
 -463.77475m  109.3886m  699.9999m   44.1234m  765.2651m 
 -463.67475m  109.4023m  699.9999m   44.2648m  765.1374m 
 -463.57475m  109.4159m  699.9999m   44.4062m  765.0096m 
 -463.47475m  109.4296m  699.9999m   44.5477m  764.8819m 
 -463.37475m  109.4433m  699.9999m   44.6891m  764.7542m 
 -463.27475m  109.4570m  699.9999m   44.8305m  764.6265m 
 -463.17475m  109.4707m  699.9999m   44.9719m  764.4987m 
 -463.07475m  109.4845m  699.9999m   45.1133m  764.3711m 
 -462.97475m  109.4982m  699.9999m   45.2548m  764.2434m 
 -462.87475m  109.5119m  699.9999m   45.3962m  764.1157m 
 -462.77475m  109.5257m  699.9999m   45.5376m  763.9880m 
 -462.67475m  109.5395m  699.9999m   45.6790m  763.8604m 
 -462.57475m  109.5532m  699.9999m   45.8204m  763.7327m 
 -462.47475m  109.5670m  699.9999m   45.9619m  763.6051m 
 -462.37475m  109.5808m  699.9999m   46.1033m  763.4775m 
 -462.27475m  109.5946m  699.9999m   46.2447m  763.3499m 
 -462.17475m  109.6085m  699.9999m   46.3861m  763.2223m 
 -462.07475m  109.6223m  699.9999m   46.5275m  763.0947m 
 -461.97475m  109.6361m  699.9999m   46.6690m  762.9671m 
 -461.87475m  109.6500m  699.9999m   46.8104m  762.8395m 
 -461.77475m  109.6638m  699.9999m   46.9518m  762.7119m 
 -461.67475m  109.6777m  699.9999m   47.0932m  762.5844m 
 -461.57475m  109.6916m  699.9999m   47.2347m  762.4569m 
 -461.47475m  109.7055m  699.9999m   47.3761m  762.3293m 
 -461.37475m  109.7194m  699.9999m   47.5175m  762.2018m 
 -461.27475m  109.7333m  699.9999m   47.6589m  762.0743m 
 -461.17475m  109.7472m  699.9999m   47.8003m  761.9468m 
 -461.07475m  109.7611m  699.9999m   47.9418m  761.8193m 
 -460.97475m  109.7751m  699.9999m   48.0832m  761.6918m 
 -460.87475m  109.7890m  699.9999m   48.2246m  761.5644m 
 -460.77475m  109.8030m  699.9999m   48.3660m  761.4369m 
 -460.67475m  109.8170m  699.9999m   48.5074m  761.3095m 
 -460.57475m  109.8310m  699.9999m   48.6489m  761.1820m 
 -460.47475m  109.8450m  699.9999m   48.7903m  761.0546m 
 -460.37475m  109.8590m  699.9999m   48.9317m  760.9272m 
 -460.27475m  109.8730m  699.9999m   49.0731m  760.7998m 
 -460.17475m  109.8870m  699.9999m   49.2145m  760.6724m 
 -460.07475m  109.9010m  699.9999m   49.3560m  760.5450m 
 -459.97475m  109.9151m  699.9999m   49.4974m  760.4176m 
 -459.87475m  109.9291m  699.9999m   49.6388m  760.2902m 
 -459.77475m  109.9432m  699.9999m   49.7802m  760.1629m 
 -459.67475m  109.9573m  699.9999m   49.9216m  760.0356m 
 -459.57475m  109.9714m  699.9999m   50.0631m  759.9082m 
 -459.47475m  109.9855m  699.9999m   50.2045m  759.7809m 
 -459.37475m  109.9996m  699.9999m   50.3459m  759.6536m 
 -459.27475m  110.0137m  699.9999m   50.4873m  759.5263m 
 -459.17475m  110.0278m  699.9999m   50.6288m  759.3990m 
 -459.07475m  110.0420m  699.9999m   50.7702m  759.2717m 
 -458.97475m  110.0561m  699.9999m   50.9116m  759.1445m 
 -458.87475m  110.0703m  699.9999m   51.0530m  759.0172m 
 -458.77475m  110.0845m  699.9999m   51.1944m  758.8899m 
 -458.67475m  110.0987m  699.9999m   51.3359m  758.7627m 
 -458.57475m  110.1129m  699.9999m   51.4773m  758.6355m 
 -458.47475m  110.1271m  699.9999m   51.6187m  758.5083m 
 -458.37475m  110.1413m  699.9999m   51.7601m  758.3811m 
 -458.27475m  110.1555m  699.9999m   51.9015m  758.2539m 
 -458.17475m  110.1697m  699.9999m   52.0430m  758.1267m 
 -458.07475m  110.1840m  699.9999m   52.1844m  757.9995m 
 -457.97475m  110.1983m  699.9999m   52.3258m  757.8724m 
 -457.87475m  110.2125m  699.9999m   52.4672m  757.7452m 
 -457.77475m  110.2268m  699.9999m   52.6086m  757.6181m 
 -457.67475m  110.2411m  699.9999m   52.7501m  757.4909m 
 -457.57475m  110.2554m  699.9999m   52.8915m  757.3638m 
 -457.47475m  110.2697m  699.9999m   53.0329m  757.2367m 
 -457.37475m  110.2840m  699.9999m   53.1743m  757.1096m 
 -457.27475m  110.2984m  699.9999m   53.3157m  756.9825m 
 -457.17475m  110.3127m  699.9999m   53.4572m  756.8554m 
 -457.07475m  110.3271m  699.9999m   53.5986m  756.7284m 
 -456.97475m  110.3414m  699.9999m   53.7400m  756.6013m 
 -456.87475m  110.3558m  699.9999m   53.8814m  756.4743m 
 -456.77475m  110.3702m  699.9999m   54.0229m  756.3473m 
 -456.67475m  110.3846m  699.9999m   54.1643m  756.2202m 
 -456.57475m  110.3990m  699.9999m   54.3057m  756.0932m 
 -456.47475m  110.4134m  699.9999m   54.4471m  755.9662m 
 -456.37475m  110.4279m  699.9999m   54.5885m  755.8392m 
 -456.27475m  110.4423m  699.9999m   54.7300m  755.7123m 
 -456.17475m  110.4568m  699.9999m   54.8714m  755.5853m 
 -456.07475m  110.4712m  699.9999m   55.0128m  755.4583m 
 -455.97475m  110.4857m  699.9999m   55.1542m  755.3314m 
 -455.87475m  110.5002m  699.9999m   55.2956m  755.2045m 
 -455.77475m  110.5147m  699.9999m   55.4371m  755.0775m 
 -455.67475m  110.5292m  699.9999m   55.5785m  754.9506m 
 -455.57475m  110.5437m  699.9999m   55.7199m  754.8237m 
 -455.47475m  110.5583m  699.9999m   55.8613m  754.6968m 
 -455.37475m  110.5728m  699.9999m   56.0027m  754.5699m 
 -455.27475m  110.5874m  699.9999m   56.1442m  754.4431m 
 -455.17475m  110.6019m  699.9999m   56.2856m  754.3162m 
 -455.07475m  110.6165m  699.9999m   56.4270m  754.1894m 
 -454.97475m  110.6311m  699.9999m   56.5684m  754.0625m 
 -454.87475m  110.6457m  699.9999m   56.7098m  753.9357m 
 -454.77475m  110.6603m  699.9999m   56.8513m  753.8089m 
 -454.67475m  110.6749m  699.9999m   56.9927m  753.6821m 
 -454.57475m  110.6895m  699.9999m   57.1341m  753.5553m 
 -454.47475m  110.7042m  699.9999m   57.2755m  753.4285m 
 -454.37475m  110.7188m  699.9999m   57.4169m  753.3017m 
 -454.27475m  110.7335m  699.9999m   57.5584m  753.1750m 
 -454.17475m  110.7482m  699.9999m   57.6998m  753.0482m 
 -454.07475m  110.7628m  699.9999m   57.8412m  752.9215m 
 -453.97475m  110.7775m  699.9999m   57.9826m  752.7948m 
 -453.87475m  110.7922m  699.9999m   58.1241m  752.6681m 
 -453.77475m  110.8070m  699.9999m   58.2655m  752.5414m 
 -453.67475m  110.8217m  699.9999m   58.4069m  752.4147m 
 -453.57475m  110.8364m  699.9999m   58.5483m  752.2880m 
 -453.47475m  110.8512m  699.9999m   58.6897m  752.1613m 
 -453.37475m  110.8659m  699.9999m   58.8312m  752.0347m 
 -453.27475m  110.8807m  699.9999m   58.9726m  751.9080m 
 -453.17475m  110.8955m  699.9999m   59.1140m  751.7814m 
 -453.07475m  110.9103m  699.9999m   59.2554m  751.6548m 
 -452.97475m  110.9251m  699.9999m   59.3968m  751.5281m 
 -452.87475m  110.9399m  699.9999m   59.5383m  751.4015m 
 -452.77475m  110.9548m  699.9999m   59.6797m  751.2749m 
 -452.67475m  110.9696m  699.9999m   59.8211m  751.1484m 
 -452.57475m  110.9845m  699.9999m   59.9625m  751.0218m 
 -452.47475m  110.9993m  699.9999m   60.1039m  750.8952m 
 -452.37475m  111.0142m  699.9999m   60.2454m  750.7687m 
 -452.27475m  111.0291m  699.9999m   60.3868m  750.6422m 
 -452.17475m  111.0440m  699.9999m   60.5282m  750.5156m 
 -452.07475m  111.0589m  699.9999m   60.6696m  750.3891m 
 -451.97475m  111.0738m  699.9999m   60.8110m  750.2626m 
 -451.87475m  111.0887m  699.9999m   60.9525m  750.1361m 
 -451.77475m  111.1037m  699.9999m   61.0939m  750.0097m 
 -451.67475m  111.1186m  699.9999m   61.2353m  749.8832m 
 -451.57475m  111.1336m  699.9999m   61.3767m  749.7567m 
 -451.47475m  111.1486m  699.9999m   61.5181m  749.6303m 
 -451.37475m  111.1636m  699.9999m   61.6596m  749.5038m 
 -451.27475m  111.1786m  699.9999m   61.8010m  749.3774m 
 -451.17475m  111.1936m  699.9999m   61.9424m  749.2510m 
 -451.07475m  111.2086m  699.9999m   62.0838m  749.1246m 
 -450.97475m  111.2236m  699.9999m   62.2252m  748.9982m 
 -450.87475m  111.2387m  699.9999m   62.3667m  748.8719m 
 -450.77475m  111.2537m  699.9999m   62.5081m  748.7455m 
 -450.67475m  111.2688m  699.9999m   62.6495m  748.6191m 
 -450.57475m  111.2839m  699.9998m   62.7909m  748.4928m 
 -450.47475m  111.2990m  699.9998m   62.9324m  748.3665m 
 -450.37475m  111.3141m  699.9998m   63.0738m  748.2401m 
 -450.27475m  111.3292m  699.9998m   63.2152m  748.1138m 
 -450.17475m  111.3443m  699.9998m   63.3566m  747.9875m 
 -450.07475m  111.3594m  699.9998m   63.4980m  747.8613m 
 -449.97475m  111.3746m  699.9998m   63.6395m  747.7350m 
 -449.87475m  111.3898m  699.9998m   63.7809m  747.6087m 
 -449.77475m  111.4049m  699.9998m   63.9223m  747.4825m 
 -449.67475m  111.4201m  699.9998m   64.0637m  747.3562m 
 -449.57475m  111.4353m  699.9998m   64.2051m  747.2300m 
 -449.47475m  111.4505m  699.9998m   64.3466m  747.1038m 
 -449.37475m  111.4657m  699.9998m   64.4880m  746.9776m 
 -449.27475m  111.4810m  699.9998m   64.6294m  746.8514m 
 -449.17475m  111.4962m  699.9998m   64.7708m  746.7252m 
 -449.07475m  111.5114m  699.9998m   64.9122m  746.5990m 
 -448.97475m  111.5267m  699.9998m   65.0537m  746.4729m 
 -448.87475m  111.5420m  699.9998m   65.1951m  746.3467m 
 -448.77475m  111.5573m  699.9998m   65.3365m  746.2206m 
 -448.67475m  111.5726m  699.9998m   65.4779m  746.0945m 
 -448.57475m  111.5879m  699.9998m   65.6193m  745.9684m 
 -448.47475m  111.6032m  699.9998m   65.7608m  745.8423m 
 -448.37475m  111.6185m  699.9998m   65.9022m  745.7162m 
 -448.27475m  111.6339m  699.9998m   66.0436m  745.5901m 
 -448.17475m  111.6492m  699.9998m   66.1850m  745.4640m 
 -448.07475m  111.6646m  699.9998m   66.3264m  745.3380m 
 -447.97475m  111.6800m  699.9998m   66.4679m  745.2120m 
 -447.87475m  111.6954m  699.9998m   66.6093m  745.0859m 
 -447.77475m  111.7108m  699.9998m   66.7507m  744.9599m 
 -447.67475m  111.7262m  699.9998m   66.8921m  744.8339m 
 -447.57475m  111.7416m  699.9998m   67.0335m  744.7079m 
 -447.47475m  111.7571m  699.9998m   67.1750m  744.5819m 
 -447.37475m  111.7725m  699.9998m   67.3164m  744.4560m 
 -447.27475m  111.7880m  699.9998m   67.4578m  744.3300m 
 -447.17475m  111.8035m  699.9998m   67.5992m  744.2041m 
 -447.07475m  111.8189m  699.9998m   67.7406m  744.0781m 
 -446.97475m  111.8344m  699.9998m   67.8821m  743.9522m 
 -446.87475m  111.8500m  699.9998m   68.0235m  743.8263m 
 -446.77475m  111.8655m  699.9998m   68.1649m  743.7004m 
 -446.67475m  111.8810m  699.9998m   68.3063m  743.5745m 
 -446.57475m  111.8966m  699.9998m   68.4477m  743.4486m 
 -446.47475m  111.9121m  699.9998m   68.5892m  743.3228m 
 -446.37475m  111.9277m  699.9998m   68.7306m  743.1969m 
 -446.27475m  111.9433m  699.9998m   68.8720m  743.0711m 
 -446.17475m  111.9589m  699.9998m   69.0134m  742.9452m 
 -446.07475m  111.9745m  699.9998m   69.1548m  742.8194m 
 -445.97475m  111.9901m  699.9998m   69.2963m  742.6936m 
 -445.87475m  112.0057m  699.9998m   69.4377m  742.5678m 
 -445.77475m  112.0214m  699.9998m   69.5791m  742.4420m 
 -445.67475m  112.0370m  699.9998m   69.7205m  742.3163m 
 -445.57475m  112.0527m  699.9998m   69.8620m  742.1905m 
 -445.47475m  112.0683m  699.9998m   70.0034m  742.0648m 
 -445.37475m  112.0840m  699.9998m   70.1448m  741.9390m 
 -445.27475m  112.0997m  699.9998m   70.2862m  741.8133m 
 -445.17475m  112.1154m  699.9998m   70.4276m  741.6876m 
 -445.07475m  112.1312m  699.9998m   70.5691m  741.5619m 
 -444.97475m  112.1469m  699.9998m   70.7105m  741.4362m 
 -444.87475m  112.1627m  699.9998m   70.8519m  741.3106m 
 -444.77475m  112.1784m  699.9998m   70.9933m  741.1849m 
 -444.67475m  112.1942m  699.9998m   71.1347m  741.0593m 
 -444.57475m  112.2100m  699.9998m   71.2762m  740.9336m 
 -444.47475m  112.2258m  699.9998m   71.4176m  740.8080m 
 -444.37475m  112.2416m  699.9998m   71.5590m  740.6824m 
 -444.27475m  112.2574m  699.9998m   71.7004m  740.5568m 
 -444.17475m  112.2732m  699.9998m   71.8418m  740.4312m 
 -444.07475m  112.2891m  699.9998m   71.9833m  740.3056m 
 -443.97475m  112.3049m  699.9998m   72.1247m  740.1801m 
 -443.87475m  112.3208m  699.9998m   72.2661m  740.0545m 
 -443.77475m  112.3367m  699.9998m   72.4075m  739.9290m 
 -443.67475m  112.3526m  699.9998m   72.5489m  739.8034m 
 -443.57475m  112.3685m  699.9998m   72.6904m  739.6779m 
 -443.47475m  112.3844m  699.9998m   72.8318m  739.5524m 
 -443.37475m  112.4003m  699.9998m   72.9732m  739.4269m 
 -443.27475m  112.4163m  699.9998m   73.1146m  739.3015m 
 -443.17475m  112.4322m  699.9998m   73.2560m  739.1760m 
 -443.07475m  112.4482m  699.9998m   73.3975m  739.0505m 
 -442.97475m  112.4642m  699.9998m   73.5389m  738.9251m 
 -442.87475m  112.4802m  699.9998m   73.6803m  738.7997m 
 -442.77475m  112.4962m  699.9998m   73.8217m  738.6742m 
 -442.67475m  112.5122m  699.9998m   73.9631m  738.5488m 
 -442.57475m  112.5282m  699.9998m   74.1046m  738.4234m 
 -442.47475m  112.5443m  699.9998m   74.2460m  738.2981m 
 -442.37475m  112.5603m  699.9998m   74.3874m  738.1727m 
 -442.27475m  112.5764m  699.9998m   74.5288m  738.0473m 
 -442.17475m  112.5925m  699.9998m   74.6702m  737.9220m 
 -442.07475m  112.6086m  699.9998m   74.8117m  737.7967m 
 -441.97475m  112.6247m  699.9998m   74.9531m  737.6714m 
 -441.87475m  112.6408m  699.9998m   75.0945m  737.5461m 
 -441.77475m  112.6569m  699.9998m   75.2359m  737.4208m 
 -441.67475m  112.6731m  699.9998m   75.3773m  737.2955m 
 -441.57475m  112.6892m  699.9998m   75.5188m  737.1702m 
 -441.47475m  112.7054m  699.9997m   75.6602m  737.0450m 
 -441.37475m  112.7216m  699.9997m   75.8016m  736.9197m 
 -441.27475m  112.7377m  699.9997m   75.9430m  736.7945m 
 -441.17475m  112.7539m  699.9997m   76.0844m  736.6693m 
 -441.07475m  112.7702m  699.9997m   76.2259m  736.5441m 
 -440.97475m  112.7864m  699.9997m   76.3673m  736.4189m 
 -440.87475m  112.8026m  699.9997m   76.5087m  736.2937m 
 -440.77475m  112.8189m  699.9997m   76.6501m  736.1685m 
 -440.67475m  112.8351m  699.9997m   76.7915m  736.0434m 
 -440.57475m  112.8514m  699.9997m   76.9330m  735.9182m 
 -440.47475m  112.8677m  699.9997m   77.0744m  735.7931m 
 -440.37475m  112.8840m  699.9997m   77.2158m  735.6680m 
 -440.27475m  112.9003m  699.9997m   77.3572m  735.5429m 
 -440.17475m  112.9167m  699.9997m   77.4986m  735.4178m 
 -440.07475m  112.9330m  699.9997m   77.6401m  735.2927m 
 -439.97475m  112.9494m  699.9997m   77.7815m  735.1676m 
 -439.87475m  112.9657m  699.9997m   77.9229m  735.0426m 
 -439.77475m  112.9821m  699.9997m   78.0643m  734.9175m 
 -439.67475m  112.9985m  699.9997m   78.2057m  734.7925m 
 -439.57475m  113.0149m  699.9997m   78.3472m  734.6675m 
 -439.47475m  113.0313m  699.9997m   78.4886m  734.5425m 
 -439.37475m  113.0477m  699.9997m   78.6300m  734.4175m 
 -439.27475m  113.0642m  699.9997m   78.7714m  734.2925m 
 -439.17475m  113.0806m  699.9997m   78.9128m  734.1675m 
 -439.07475m  113.0971m  699.9997m   79.0543m  734.0426m 
 -438.97475m  113.1136m  699.9997m   79.1957m  733.9176m 
 -438.87475m  113.1301m  699.9997m   79.3371m  733.7927m 
 -438.77475m  113.1466m  699.9997m   79.4785m  733.6678m 
 -438.67475m  113.1631m  699.9997m   79.6199m  733.5429m 
 -438.57475m  113.1796m  699.9997m   79.7613m  733.4180m 
 -438.47475m  113.1962m  699.9997m   79.9028m  733.2931m 
 -438.37475m  113.2127m  699.9997m   80.0442m  733.1682m 
 -438.27475m  113.2293m  699.9997m   80.1856m  733.0434m 
 -438.17475m  113.2459m  699.9997m   80.3270m  732.9185m 
 -438.07475m  113.2625m  699.9997m   80.4684m  732.7937m 
 -437.97475m  113.2791m  699.9997m   80.6099m  732.6689m 
 -437.87475m  113.2957m  699.9997m   80.7513m  732.5441m 
 -437.77475m  113.3123m  699.9997m   80.8927m  732.4193m 
 -437.67475m  113.3290m  699.9997m   81.0341m  732.2945m 
 -437.57475m  113.3456m  699.9997m   81.1755m  732.1698m 
 -437.47475m  113.3623m  699.9997m   81.3170m  732.0450m 
 -437.37475m  113.3790m  699.9997m   81.4584m  731.9203m 
 -437.27475m  113.3957m  699.9997m   81.5998m  731.7956m 
 -437.17475m  113.4124m  699.9997m   81.7412m  731.6709m 
 -437.07475m  113.4291m  699.9997m   81.8826m  731.5462m 
 -436.97475m  113.4459m  699.9997m   82.0241m  731.4215m 
 -436.87475m  113.4626m  699.9997m   82.1655m  731.2968m 
 -436.77475m  113.4794m  699.9997m   82.3069m  731.1721m 
 -436.67475m  113.4961m  699.9997m   82.4483m  731.0475m 
 -436.57475m  113.5129m  699.9997m   82.5897m  730.9229m 
 -436.47475m  113.5297m  699.9997m   82.7312m  730.7982m 
 -436.37475m  113.5466m  699.9997m   82.8726m  730.6736m 
 -436.27475m  113.5634m  699.9997m   83.0140m  730.5490m 
 -436.17475m  113.5802m  699.9997m   83.1554m  730.4245m 
 -436.07475m  113.5971m  699.9997m   83.2968m  730.2999m 
 -435.97475m  113.6139m  699.9997m   83.4383m  730.1753m 
 -435.87475m  113.6308m  699.9997m   83.5797m  730.0508m 
 -435.77475m  113.6477m  699.9997m   83.7211m  729.9263m 
 -435.67475m  113.6646m  699.9997m   83.8625m  729.8018m 
 -435.57475m  113.6815m  699.9997m   84.0039m  729.6772m 
 -435.47475m  113.6985m  699.9996m   84.1454m  729.5528m 
 -435.37475m  113.7154m  699.9996m   84.2868m  729.4283m 
 -435.27475m  113.7324m  699.9996m   84.4282m  729.3038m 
 -435.17475m  113.7493m  699.9996m   84.5696m  729.1794m 
 -435.07475m  113.7663m  699.9996m   84.7110m  729.0549m 
 -434.97475m  113.7833m  699.9996m   84.8525m  728.9305m 
 -434.87475m  113.8003m  699.9996m   84.9939m  728.8061m 
 -434.77475m  113.8174m  699.9996m   85.1353m  728.6817m 
 -434.67475m  113.8344m  699.9996m   85.2767m  728.5573m 
 -434.57475m  113.8514m  699.9996m   85.4181m  728.4329m 
 -434.47475m  113.8685m  699.9996m   85.5595m  728.3086m 
 -434.37475m  113.8856m  699.9996m   85.7010m  728.1842m 
 -434.27475m  113.9027m  699.9996m   85.8424m  728.0599m 
 -434.17475m  113.9198m  699.9996m   85.9838m  727.9356m 
 -434.07475m  113.9369m  699.9996m   86.1252m  727.8113m 
 -433.97475m  113.9540m  699.9996m   86.2666m  727.6870m 
 -433.87475m  113.9712m  699.9996m   86.4081m  727.5627m 
 -433.77475m  113.9883m  699.9996m   86.5495m  727.4385m 
 -433.67475m  114.0055m  699.9996m   86.6909m  727.3142m 
 -433.57475m  114.0227m  699.9996m   86.8323m  727.1900m 
 -433.47475m  114.0399m  699.9996m   86.9737m  727.0657m 
 -433.37475m  114.0571m  699.9996m   87.1152m  726.9415m 
 -433.27475m  114.0743m  699.9996m   87.2566m  726.8173m 
 -433.17475m  114.0915m  699.9996m   87.3980m  726.6931m 
 -433.07475m  114.1088m  699.9996m   87.5394m  726.5690m 
 -432.97475m  114.1261m  699.9996m   87.6808m  726.4448m 
 -432.87475m  114.1433m  699.9996m   87.8223m  726.3207m 
 -432.77475m  114.1606m  699.9996m   87.9637m  726.1965m 
 -432.67475m  114.1779m  699.9996m   88.1051m  726.0724m 
 -432.57475m  114.1952m  699.9996m   88.2465m  725.9483m 
 -432.47475m  114.2126m  699.9996m   88.3879m  725.8242m 
 -432.37475m  114.2299m  699.9996m   88.5294m  725.7002m 
 -432.27475m  114.2473m  699.9996m   88.6708m  725.5761m 
 -432.17475m  114.2646m  699.9996m   88.8122m  725.4520m 
 -432.07475m  114.2820m  699.9996m   88.9536m  725.3280m 
 -431.97475m  114.2994m  699.9996m   89.0950m  725.2040m 
 -431.87475m  114.3168m  699.9996m   89.2364m  725.0800m 
 -431.77475m  114.3343m  699.9996m   89.3779m  724.9560m 
 -431.67475m  114.3517m  699.9996m   89.5193m  724.8320m 
 -431.57475m  114.3692m  699.9996m   89.6607m  724.7080m 
 -431.47475m  114.3866m  699.9996m   89.8021m  724.5841m 
 -431.37475m  114.4041m  699.9996m   89.9435m  724.4601m 
 -431.27475m  114.4216m  699.9996m   90.0850m  724.3362m 
 -431.17475m  114.4391m  699.9996m   90.2264m  724.2123m 
 -431.07475m  114.4566m  699.9995m   90.3678m  724.0884m 
 -430.97475m  114.4742m  699.9995m   90.5092m  723.9645m 
 -430.87475m  114.4917m  699.9995m   90.6506m  723.8406m 
 -430.77475m  114.5093m  699.9995m   90.7921m  723.7168m 
 -430.67475m  114.5268m  699.9995m   90.9335m  723.5929m 
 -430.57475m  114.5444m  699.9995m   91.0749m  723.4691m 
 -430.47475m  114.5620m  699.9995m   91.2163m  723.3453m 
 -430.37475m  114.5797m  699.9995m   91.3577m  723.2215m 
 -430.27475m  114.5973m  699.9995m   91.4991m  723.0977m 
 -430.17475m  114.6149m  699.9995m   91.6406m  722.9739m 
 -430.07475m  114.6326m  699.9995m   91.7820m  722.8501m 
 -429.97475m  114.6503m  699.9995m   91.9234m  722.7264m 
 -429.87475m  114.6679m  699.9995m   92.0648m  722.6026m 
 -429.77475m  114.6856m  699.9995m   92.2062m  722.4789m 
 -429.67475m  114.7034m  699.9995m   92.3477m  722.3552m 
 -429.57475m  114.7211m  699.9995m   92.4891m  722.2315m 
 -429.47475m  114.7388m  699.9995m   92.6305m  722.1078m 
 -429.37475m  114.7566m  699.9995m   92.7719m  721.9842m 
 -429.27475m  114.7743m  699.9995m   92.9133m  721.8605m 
 -429.17475m  114.7921m  699.9995m   93.0548m  721.7369m 
 -429.07475m  114.8099m  699.9995m   93.1962m  721.6133m 
 -428.97475m  114.8277m  699.9995m   93.3376m  721.4896m 
 -428.87475m  114.8456m  699.9995m   93.4790m  721.3660m 
 -428.77475m  114.8634m  699.9995m   93.6204m  721.2425m 
 -428.67475m  114.8812m  699.9995m   93.7618m  721.1189m 
 -428.57475m  114.8991m  699.9995m   93.9033m  720.9953m 
 -428.47475m  114.9170m  699.9995m   94.0447m  720.8718m 
 -428.37475m  114.9349m  699.9995m   94.1861m  720.7483m 
 -428.27475m  114.9528m  699.9995m   94.3275m  720.6248m 
 -428.17475m  114.9707m  699.9995m   94.4689m  720.5013m 
 -428.07475m  114.9887m  699.9995m   94.6104m  720.3778m 
 -427.97475m  115.0066m  699.9995m   94.7518m  720.2543m 
 -427.87475m  115.0246m  699.9995m   94.8932m  720.1308m 
 -427.77475m  115.0425m  699.9995m   95.0346m  720.0074m 
 -427.67475m  115.0605m  699.9995m   95.1760m  719.8840m 
 -427.57475m  115.0785m  699.9994m   95.3174m  719.7605m 
 -427.47475m  115.0966m  699.9994m   95.4589m  719.6371m 
 -427.37475m  115.1146m  699.9994m   95.6003m  719.5138m 
 -427.27475m  115.1326m  699.9994m   95.7417m  719.3904m 
 -427.17475m  115.1507m  699.9994m   95.8831m  719.2670m 
 -427.07475m  115.1688m  699.9994m   96.0245m  719.1437m 
 -426.97475m  115.1869m  699.9994m   96.1660m  719.0204m 
 -426.87475m  115.2050m  699.9994m   96.3074m  718.8970m 
 -426.77475m  115.2231m  699.9994m   96.4488m  718.7737m 
 -426.67475m  115.2412m  699.9994m   96.5902m  718.6504m 
 -426.57475m  115.2594m  699.9994m   96.7316m  718.5272m 
 -426.47475m  115.2775m  699.9994m   96.8730m  718.4039m 
 -426.37475m  115.2957m  699.9994m   97.0145m  718.2807m 
 -426.27475m  115.3139m  699.9994m   97.1559m  718.1574m 
 -426.17475m  115.3321m  699.9994m   97.2973m  718.0342m 
 -426.07475m  115.3503m  699.9994m   97.4387m  717.9110m 
 -425.97475m  115.3686m  699.9994m   97.5801m  717.7878m 
 -425.87475m  115.3868m  699.9994m   97.7216m  717.6647m 
 -425.77475m  115.4051m  699.9994m   97.8630m  717.5415m 
 -425.67475m  115.4234m  699.9994m   98.0044m  717.4184m 
 -425.57475m  115.4416m  699.9994m   98.1458m  717.2952m 
 -425.47475m  115.4599m  699.9994m   98.2872m  717.1721m 
 -425.37475m  115.4783m  699.9994m   98.4286m  717.0490m 
 -425.27475m  115.4966m  699.9994m   98.5701m  716.9259m 
 -425.17475m  115.5149m  699.9994m   98.7115m  716.8028m 
 -425.07475m  115.5333m  699.9994m   98.8529m  716.6798m 
 -424.97475m  115.5517m  699.9994m   98.9943m  716.5567m 
 -424.87475m  115.5701m  699.9994m   99.1357m  716.4337m 
 -424.77475m  115.5885m  699.9994m   99.2771m  716.3107m 
 -424.67475m  115.6069m  699.9994m   99.4186m  716.1877m 
 -424.57475m  115.6253m  699.9993m   99.5600m  716.0647m 
 -424.47475m  115.6438m  699.9993m   99.7014m  715.9417m 
 -424.37475m  115.6622m  699.9993m   99.8428m  715.8188m 
 -424.27475m  115.6807m  699.9993m   99.9842m  715.6958m 
 -424.17475m  115.6992m  699.9993m  100.1257m  715.5729m 
 -424.07475m  115.7177m  699.9993m  100.2671m  715.4500m 
 -423.97475m  115.7362m  699.9993m  100.4085m  715.3271m 
 -423.87475m  115.7548m  699.9993m  100.5499m  715.2042m 
 -423.77475m  115.7733m  699.9993m  100.6913m  715.0813m 
 -423.67475m  115.7919m  699.9993m  100.8327m  714.9585m 
 -423.57475m  115.8105m  699.9993m  100.9742m  714.8356m 
 -423.47475m  115.8291m  699.9993m  101.1156m  714.7128m 
 -423.37475m  115.8477m  699.9993m  101.2570m  714.5900m 
 -423.27475m  115.8663m  699.9993m  101.3984m  714.4672m 
 -423.17475m  115.8849m  699.9993m  101.5398m  714.3444m 
 -423.07475m  115.9036m  699.9993m  101.6812m  714.2216m 
 -422.97475m  115.9223m  699.9993m  101.8227m  714.0989m 
 -422.87475m  115.9409m  699.9993m  101.9641m  713.9761m 
 -422.77475m  115.9596m  699.9993m  102.1055m  713.8534m 
 -422.67475m  115.9784m  699.9993m  102.2469m  713.7307m 
 -422.57475m  115.9971m  699.9993m  102.3883m  713.6080m 
 -422.47475m  116.0158m  699.9993m  102.5297m  713.4853m 
 -422.37475m  116.0346m  699.9993m  102.6712m  713.3627m 
 -422.27475m  116.0533m  699.9993m  102.8126m  713.2400m 
 -422.17475m  116.0721m  699.9993m  102.9540m  713.1174m 
 -422.07475m  116.0909m  699.9992m  103.0954m  712.9948m 
 -421.97475m  116.1097m  699.9992m  103.2368m  712.8722m 
 -421.87475m  116.1286m  699.9992m  103.3782m  712.7496m 
 -421.77475m  116.1474m  699.9992m  103.5197m  712.6270m 
 -421.67475m  116.1663m  699.9992m  103.6611m  712.5044m 
 -421.57475m  116.1852m  699.9992m  103.8025m  712.3819m 
 -421.47475m  116.2040m  699.9992m  103.9439m  712.2593m 
 -421.37475m  116.2229m  699.9992m  104.0853m  712.1368m 
 -421.27475m  116.2419m  699.9992m  104.2268m  712.0143m 
 -421.17475m  116.2608m  699.9992m  104.3682m  711.8918m 
 -421.07475m  116.2798m  699.9992m  104.5096m  711.7694m 
 -420.97475m  116.2987m  699.9992m  104.6510m  711.6469m 
 -420.87475m  116.3177m  699.9992m  104.7924m  711.5245m 
 -420.77475m  116.3367m  699.9992m  104.9338m  711.4020m 
 -420.67475m  116.3557m  699.9992m  105.0753m  711.2796m 
 -420.57475m  116.3747m  699.9992m  105.2167m  711.1572m 
 -420.47475m  116.3938m  699.9992m  105.3581m  711.0348m 
 -420.37475m  116.4128m  699.9992m  105.4995m  710.9125m 
 -420.27475m  116.4319m  699.9992m  105.6409m  710.7901m 
 -420.17475m  116.4510m  699.9992m  105.7823m  710.6678m 
 -420.07475m  116.4701m  699.9992m  105.9238m  710.5455m 
 -419.97475m  116.4892m  699.9992m  106.0652m  710.4232m 
 -419.87475m  116.5083m  699.9991m  106.2066m  710.3009m 
 -419.77475m  116.5274m  699.9991m  106.3480m  710.1786m 
 -419.67475m  116.5466m  699.9991m  106.4894m  710.0563m 
 -419.57475m  116.5658m  699.9991m  106.6308m  709.9341m 
 -419.47475m  116.5850m  699.9991m  106.7723m  709.8118m 
 -419.37475m  116.6042m  699.9991m  106.9137m  709.6896m 
 -419.27475m  116.6234m  699.9991m  107.0551m  709.5674m 
 -419.17475m  116.6426m  699.9991m  107.1965m  709.4452m 
 -419.07475m  116.6619m  699.9991m  107.3379m  709.3231m 
 -418.97475m  116.6811m  699.9991m  107.4793m  709.2009m 
 -418.87475m  116.7004m  699.9991m  107.6207m  709.0788m 
 -418.77475m  116.7197m  699.9991m  107.7622m  708.9566m 
 -418.67475m  116.7390m  699.9991m  107.9036m  708.8345m 
 -418.57475m  116.7584m  699.9991m  108.0450m  708.7124m 
 -418.47475m  116.7777m  699.9991m  108.1864m  708.5904m 
 -418.37475m  116.7971m  699.9991m  108.3278m  708.4683m 
 -418.27475m  116.8164m  699.9991m  108.4692m  708.3462m 
 -418.17475m  116.8358m  699.9991m  108.6107m  708.2242m 
 -418.07475m  116.8552m  699.9991m  108.7521m  708.1022m 
 -417.97475m  116.8746m  699.9990m  108.8935m  707.9802m 
 -417.87475m  116.8941m  699.9990m  109.0349m  707.8582m 
 -417.77475m  116.9135m  699.9990m  109.1763m  707.7362m 
 -417.67475m  116.9330m  699.9990m  109.3177m  707.6143m 
 -417.57475m  116.9525m  699.9990m  109.4592m  707.4923m 
 -417.47475m  116.9720m  699.9990m  109.6006m  707.3704m 
 -417.37475m  116.9915m  699.9990m  109.7420m  707.2485m 
 -417.27475m  117.0110m  699.9990m  109.8834m  707.1266m 
 -417.17475m  117.0305m  699.9990m  110.0248m  707.0047m 
 -417.07475m  117.0501m  699.9990m  110.1662m  706.8829m 
 -416.97475m  117.0697m  699.9990m  110.3076m  706.7610m 
 -416.87475m  117.0892m  699.9990m  110.4491m  706.6392m 
 -416.77475m  117.1089m  699.9990m  110.5905m  706.5174m 
 -416.67475m  117.1285m  699.9990m  110.7319m  706.3955m 
 -416.57475m  117.1481m  699.9990m  110.8733m  706.2738m 
 -416.47475m  117.1678m  699.9990m  111.0147m  706.1520m 
 -416.37475m  117.1874m  699.9990m  111.1561m  706.0302m 
 -416.27475m  117.2071m  699.9990m  111.2976m  705.9085m 
 -416.17475m  117.2268m  699.9989m  111.4390m  705.7868m 
 -416.07475m  117.2465m  699.9989m  111.5804m  705.6651m 
 -415.97475m  117.2662m  699.9989m  111.7218m  705.5434m 
 -415.87475m  117.2860m  699.9989m  111.8632m  705.4217m 
 -415.77475m  117.3057m  699.9989m  112.0046m  705.3000m 
 -415.67475m  117.3255m  699.9989m  112.1460m  705.1784m 
 -415.57475m  117.3453m  699.9989m  112.2875m  705.0567m 
 -415.47475m  117.3651m  699.9989m  112.4289m  704.9351m 
 -415.37475m  117.3849m  699.9989m  112.5703m  704.8135m 
 -415.27475m  117.4048m  699.9989m  112.7117m  704.6919m 
 -415.17475m  117.4246m  699.9989m  112.8531m  704.5704m 
 -415.07475m  117.4445m  699.9989m  112.9945m  704.4488m 
 -414.97475m  117.4644m  699.9989m  113.1360m  704.3273m 
 -414.87475m  117.4843m  699.9989m  113.2774m  704.2058m 
 -414.77475m  117.5042m  699.9989m  113.4188m  704.0843m 
 -414.67475m  117.5241m  699.9988m  113.5602m  703.9628m 
 -414.57475m  117.5441m  699.9988m  113.7016m  703.8413m 
 -414.47475m  117.5640m  699.9988m  113.8430m  703.7198m 
 -414.37475m  117.5840m  699.9988m  113.9844m  703.5984m 
 -414.27475m  117.6040m  699.9988m  114.1259m  703.4770m 
 -414.17475m  117.6240m  699.9988m  114.2673m  703.3556m 
 -414.07475m  117.6440m  699.9988m  114.4087m  703.2342m 
 -413.97475m  117.6641m  699.9988m  114.5501m  703.1128m 
 -413.87475m  117.6841m  699.9988m  114.6915m  702.9914m 
 -413.77475m  117.7042m  699.9988m  114.8329m  702.8701m 
 -413.67475m  117.7243m  699.9988m  114.9743m  702.7487m 
 -413.57475m  117.7444m  699.9988m  115.1158m  702.6274m 
 -413.47475m  117.7645m  699.9988m  115.2572m  702.5061m 
 -413.37475m  117.7847m  699.9988m  115.3986m  702.3848m 
 -413.27475m  117.8048m  699.9988m  115.5400m  702.2636m 
 -413.17475m  117.8250m  699.9987m  115.6814m  702.1423m 
 -413.07475m  117.8452m  699.9987m  115.8228m  702.0211m 
 -412.97475m  117.8654m  699.9987m  115.9642m  701.8999m 
 -412.87475m  117.8856m  699.9987m  116.1057m  701.7787m 
 -412.77475m  117.9058m  699.9987m  116.2471m  701.6575m 
 -412.67475m  117.9261m  699.9987m  116.3885m  701.5363m 
 -412.57475m  117.9464m  699.9987m  116.5299m  701.4152m 
 -412.47475m  117.9666m  699.9987m  116.6713m  701.2940m 
 -412.37475m  117.9869m  699.9987m  116.8127m  701.1729m 
 -412.27475m  118.0073m  699.9987m  116.9541m  701.0518m 
 -412.17475m  118.0276m  699.9987m  117.0956m  700.9307m 
 -412.07475m  118.0479m  699.9987m  117.2370m  700.8096m 
 -411.97475m  118.0683m  699.9987m  117.3784m  700.6886m 
 -411.87475m  118.0887m  699.9986m  117.5198m  700.5675m 
 -411.77475m  118.1091m  699.9986m  117.6612m  700.4465m 
 -411.67475m  118.1295m  699.9986m  117.8026m  700.3255m 
 -411.57475m  118.1499m  699.9986m  117.9440m  700.2045m 
 -411.47475m  118.1704m  699.9986m  118.0854m  700.0835m 
 -411.37475m  118.1908m  699.9986m  118.2269m  699.9626m 
 -411.27475m  118.2113m  699.9986m  118.3683m  699.8416m 
 -411.17475m  118.2318m  699.9986m  118.5097m  699.7207m 
 -411.07475m  118.2523m  699.9986m  118.6511m  699.5998m 
 -410.97475m  118.2728m  699.9986m  118.7925m  699.4789m 
 -410.87475m  118.2934m  699.9986m  118.9339m  699.3580m 
 -410.77475m  118.3139m  699.9986m  119.0753m  699.2371m 
 -410.67475m  118.3345m  699.9986m  119.2168m  699.1163m 
 -410.57475m  118.3551m  699.9985m  119.3582m  698.9955m 
 -410.47475m  118.3757m  699.9985m  119.4996m  698.8747m 
 -410.37475m  118.3963m  699.9985m  119.6410m  698.7539m 
 -410.27475m  118.4170m  699.9985m  119.7824m  698.6331m 
 -410.17475m  118.4376m  699.9985m  119.9238m  698.5123m 
 -410.07475m  118.4583m  699.9985m  120.0652m  698.3916m 
 -409.97475m  118.4790m  699.9985m  120.2066m  698.2708m 
 -409.87475m  118.4997m  699.9985m  120.3481m  698.1501m 
 -409.77475m  118.5204m  699.9985m  120.4895m  698.0294m 
 -409.67475m  118.5411m  699.9985m  120.6309m  697.9087m 
 -409.57475m  118.5619m  699.9985m  120.7723m  697.7881m 
 -409.47475m  118.5827m  699.9984m  120.9137m  697.6674m 
 -409.37475m  118.6035m  699.9984m  121.0551m  697.5468m 
 -409.27475m  118.6243m  699.9984m  121.1965m  697.4262m 
 -409.17475m  118.6451m  699.9984m  121.3379m  697.3056m 
 -409.07475m  118.6659m  699.9984m  121.4794m  697.1850m 
 -408.97475m  118.6868m  699.9984m  121.6208m  697.0644m 
 -408.87475m  118.7077m  699.9984m  121.7622m  696.9439m 
 -408.77475m  118.7285m  699.9984m  121.9036m  696.8233m 
 -408.67475m  118.7495m  699.9984m  122.0450m  696.7028m 
 -408.57475m  118.7704m  699.9984m  122.1864m  696.5823m 
 -408.47475m  118.7913m  699.9984m  122.3278m  696.4618m 
 -408.37475m  118.8123m  699.9983m  122.4692m  696.3414m 
 -408.27475m  118.8332m  699.9983m  122.6107m  696.2209m 
 -408.17475m  118.8542m  699.9983m  122.7521m  696.1005m 
 -408.07475m  118.8752m  699.9983m  122.8935m  695.9801m 
 -407.97475m  118.8963m  699.9983m  123.0349m  695.8597m 
 -407.87475m  118.9173m  699.9983m  123.1763m  695.7393m 
 -407.77475m  118.9383m  699.9983m  123.3177m  695.6189m 
 -407.67475m  118.9594m  699.9983m  123.4591m  695.4986m 
 -407.57475m  118.9805m  699.9983m  123.6005m  695.3782m 
 -407.47475m  119.0016m  699.9983m  123.7419m  695.2579m 
 -407.37475m  119.0227m  699.9982m  123.8834m  695.1376m 
 -407.27475m  119.0439m  699.9982m  124.0248m  695.0173m 
 -407.17475m  119.0650m  699.9982m  124.1662m  694.8971m 
 -407.07475m  119.0862m  699.9982m  124.3076m  694.7768m 
 -406.97475m  119.1074m  699.9982m  124.4490m  694.6566m 
 -406.87475m  119.1286m  699.9982m  124.5904m  694.5364m 
 -406.77475m  119.1498m  699.9982m  124.7318m  694.4162m 
 -406.67475m  119.1711m  699.9982m  124.8732m  694.2960m 
 -406.57475m  119.1923m  699.9982m  125.0146m  694.1758m 
 -406.47475m  119.2136m  699.9982m  125.1561m  694.0557m 
 -406.37475m  119.2349m  699.9981m  125.2975m  693.9356m 
 -406.27475m  119.2562m  699.9981m  125.4389m  693.8155m 
 -406.17475m  119.2775m  699.9981m  125.5803m  693.6954m 
 -406.07475m  119.2989m  699.9981m  125.7217m  693.5753m 
 -405.97475m  119.3202m  699.9981m  125.8631m  693.4552m 
 -405.87475m  119.3416m  699.9981m  126.0045m  693.3352m 
 -405.77475m  119.3630m  699.9981m  126.1459m  693.2151m 
 -405.67475m  119.3844m  699.9981m  126.2873m  693.0951m 
 -405.57475m  119.4058m  699.9981m  126.4287m  692.9751m 
 -405.47475m  119.4273m  699.9980m  126.5702m  692.8552m 
 -405.37475m  119.4487m  699.9980m  126.7116m  692.7352m 
 -405.27475m  119.4702m  699.9980m  126.8530m  692.6153m 
 -405.17475m  119.4917m  699.9980m  126.9944m  692.4953m 
 -405.07475m  119.5132m  699.9980m  127.1358m  692.3754m 
 -404.97475m  119.5348m  699.9980m  127.2772m  692.2555m 
 -404.87475m  119.5563m  699.9980m  127.4186m  692.1357m 
 -404.77475m  119.5779m  699.9980m  127.5600m  692.0158m 
 -404.67475m  119.5995m  699.9980m  127.7014m  691.8960m 
 -404.57475m  119.6211m  699.9979m  127.8428m  691.7762m 
 -404.47475m  119.6427m  699.9979m  127.9843m  691.6563m 
 -404.37475m  119.6643m  699.9979m  128.1257m  691.5366m 
 -404.27475m  119.6860m  699.9979m  128.2671m  691.4168m 
 -404.17475m  119.7076m  699.9979m  128.4085m  691.2970m 
 -404.07475m  119.7293m  699.9979m  128.5499m  691.1773m 
 -403.97475m  119.7510m  699.9979m  128.6913m  691.0576m 
 -403.87475m  119.7727m  699.9979m  128.8327m  690.9379m 
 -403.77475m  119.7945m  699.9978m  128.9741m  690.8182m 
 -403.67475m  119.8162m  699.9978m  129.1155m  690.6985m 
 -403.57475m  119.8380m  699.9978m  129.2569m  690.5789m 
 -403.47475m  119.8598m  699.9978m  129.3983m  690.4593m 
 -403.37475m  119.8816m  699.9978m  129.5398m  690.3396m 
 -403.27475m  119.9034m  699.9978m  129.6812m  690.2200m 
 -403.17475m  119.9253m  699.9978m  129.8226m  690.1005m 
 -403.07475m  119.9471m  699.9978m  129.9640m  689.9809m 
 -402.97475m  119.9690m  699.9977m  130.1054m  689.8614m 
 -402.87475m  119.9909m  699.9977m  130.2468m  689.7418m 
 -402.77475m  120.0128m  699.9977m  130.3882m  689.6223m 
 -402.67475m  120.0347m  699.9977m  130.5296m  689.5028m 
 -402.57475m  120.0567m  699.9977m  130.6710m  689.3834m 
 -402.47475m  120.0787m  699.9977m  130.8124m  689.2639m 
 -402.37475m  120.1006m  699.9977m  130.9538m  689.1445m 
 -402.27475m  120.1226m  699.9976m  131.0952m  689.0250m 
 -402.17475m  120.1447m  699.9976m  131.2367m  688.9056m 
 -402.07475m  120.1667m  699.9976m  131.3781m  688.7863m 
 -401.97475m  120.1887m  699.9976m  131.5195m  688.6669m 
 -401.87475m  120.2108m  699.9976m  131.6609m  688.5475m 
 -401.77475m  120.2329m  699.9976m  131.8023m  688.4282m 
 -401.67475m  120.2550m  699.9976m  131.9437m  688.3089m 
 -401.57475m  120.2771m  699.9976m  132.0851m  688.1896m 
 -401.47475m  120.2993m  699.9975m  132.2265m  688.0703m 
 -401.37475m  120.3214m  699.9975m  132.3679m  687.9510m 
 -401.27475m  120.3436m  699.9975m  132.5093m  687.8318m 
 -401.17475m  120.3658m  699.9975m  132.6507m  687.7126m 
 -401.07475m  120.3880m  699.9975m  132.7921m  687.5934m 
 -400.97475m  120.4103m  699.9975m  132.9335m  687.4742m 
 -400.87475m  120.4325m  699.9975m  133.0749m  687.3550m 
 -400.77475m  120.4548m  699.9974m  133.2164m  687.2358m 
 -400.67475m  120.4771m  699.9974m  133.3578m  687.1167m 
 -400.57475m  120.4994m  699.9974m  133.4992m  686.9976m 
 -400.47475m  120.5217m  699.9974m  133.6406m  686.8785m 
 -400.37475m  120.5440m  699.9974m  133.7820m  686.7594m 
 -400.27475m  120.5664m  699.9974m  133.9234m  686.6403m 
 -400.17475m  120.5887m  699.9973m  134.0648m  686.5213m 
 -400.07475m  120.6111m  699.9973m  134.2062m  686.4023m 
 -399.97475m  120.6335m  699.9973m  134.3476m  686.2832m 
 -399.87475m  120.6560m  699.9973m  134.4890m  686.1643m 
 -399.77475m  120.6784m  699.9973m  134.6304m  686.0453m 
 -399.67475m  120.7009m  699.9973m  134.7718m  685.9263m 
 -399.57475m  120.7234m  699.9973m  134.9132m  685.8074m 
 -399.47475m  120.7458m  699.9972m  135.0546m  685.6885m 
 -399.37475m  120.7684m  699.9972m  135.1960m  685.5695m 
 -399.27475m  120.7909m  699.9972m  135.3374m  685.4507m 
 -399.17475m  120.8135m  699.9972m  135.4788m  685.3318m 
 -399.07475m  120.8360m  699.9972m  135.6203m  685.2129m 
 -398.97475m  120.8586m  699.9972m  135.7617m  685.0941m 
 -398.87475m  120.8812m  699.9971m  135.9031m  684.9753m 
 -398.77475m  120.9038m  699.9971m  136.0445m  684.8565m 
 -398.67475m  120.9265m  699.9971m  136.1859m  684.7377m 
 -398.57475m  120.9492m  699.9971m  136.3273m  684.6190m 
 -398.47475m  120.9718m  699.9971m  136.4687m  684.5002m 
 -398.37475m  120.9945m  699.9971m  136.6101m  684.3815m 
 -398.27475m  121.0172m  699.9970m  136.7515m  684.2628m 
 -398.17475m  121.0400m  699.9970m  136.8929m  684.1441m 
 -398.07475m  121.0627m  699.9970m  137.0343m  684.0254m 
 -397.97475m  121.0855m  699.9970m  137.1757m  683.9068m 
 -397.87475m  121.1083m  699.9970m  137.3171m  683.7882m 
 -397.77475m  121.1311m  699.9969m  137.4585m  683.6695m 
 -397.67475m  121.1539m  699.9969m  137.5999m  683.5509m 
 -397.57475m  121.1768m  699.9969m  137.7413m  683.4324m 
 -397.47475m  121.1996m  699.9969m  137.8827m  683.3138m 
 -397.37475m  121.2225m  699.9969m  138.0241m  683.1953m 
 -397.27475m  121.2454m  699.9969m  138.1655m  683.0767m 
 -397.17475m  121.2683m  699.9968m  138.3069m  682.9582m 
 -397.07475m  121.2913m  699.9968m  138.4483m  682.8398m 
 -396.97475m  121.3142m  699.9968m  138.5897m  682.7213m 
 -396.87475m  121.3372m  699.9968m  138.7311m  682.6028m 
 -396.77475m  121.3602m  699.9968m  138.8725m  682.4844m 
 -396.67475m  121.3832m  699.9967m  139.0139m  682.3660m 
 -396.57475m  121.4062m  699.9967m  139.1553m  682.2476m 
 -396.47475m  121.4293m  699.9967m  139.2967m  682.1292m 
 -396.37475m  121.4523m  699.9967m  139.4381m  682.0109m 
 -396.27475m  121.4754m  699.9967m  139.5795m  681.8925m 
 -396.17475m  121.4985m  699.9967m  139.7210m  681.7742m 
 -396.07475m  121.5216m  699.9966m  139.8624m  681.6559m 
 -395.97475m  121.5448m  699.9966m  140.0038m  681.5376m 
 -395.87475m  121.5679m  699.9966m  140.1452m  681.4194m 
 -395.77475m  121.5911m  699.9966m  140.2866m  681.3011m 
 -395.67475m  121.6143m  699.9966m  140.4280m  681.1829m 
 -395.57475m  121.6375m  699.9965m  140.5694m  681.0647m 
 -395.47475m  121.6607m  699.9965m  140.7108m  680.9465m 
 -395.37475m  121.6840m  699.9965m  140.8522m  680.8283m 
 -395.27475m  121.7073m  699.9965m  140.9936m  680.7102m 
 -395.17475m  121.7305m  699.9965m  141.1350m  680.5920m 
 -395.07475m  121.7538m  699.9964m  141.2764m  680.4739m 
 -394.97475m  121.7772m  699.9964m  141.4178m  680.3558m 
 -394.87475m  121.8005m  699.9964m  141.5592m  680.2377m 
 -394.77475m  121.8239m  699.9964m  141.7006m  680.1197m 
 -394.67475m  121.8473m  699.9963m  141.8420m  680.0016m 
 -394.57475m  121.8707m  699.9963m  141.9834m  679.8836m 
 -394.47475m  121.8941m  699.9963m  142.1248m  679.7656m 
 -394.37475m  121.9175m  699.9963m  142.2662m  679.6476m 
 -394.27475m  121.9410m  699.9963m  142.4076m  679.5297m 
 -394.17475m  121.9644m  699.9962m  142.5490m  679.4117m 
 -394.07475m  121.9879m  699.9962m  142.6904m  679.2938m 
 -393.97475m  122.0115m  699.9962m  142.8318m  679.1759m 
 -393.87475m  122.0350m  699.9962m  142.9732m  679.0580m 
 -393.77475m  122.0585m  699.9961m  143.1146m  678.9401m 
 -393.67475m  122.0821m  699.9961m  143.2560m  678.8223m 
 -393.57475m  122.1057m  699.9961m  143.3974m  678.7044m 
 -393.47475m  122.1293m  699.9961m  143.5388m  678.5866m 
 -393.37475m  122.1529m  699.9961m  143.6802m  678.4688m 
 -393.27475m  122.1766m  699.9960m  143.8216m  678.3511m 
 -393.17475m  122.2002m  699.9960m  143.9630m  678.2333m 
 -393.07475m  122.2239m  699.9960m  144.1044m  678.1156m 
 -392.97475m  122.2476m  699.9960m  144.2457m  677.9978m 
 -392.87475m  122.2713m  699.9959m  144.3871m  677.8801m 
 -392.77475m  122.2951m  699.9959m  144.5285m  677.7625m 
 -392.67475m  122.3188m  699.9959m  144.6699m  677.6448m 
 -392.57475m  122.3426m  699.9959m  144.8113m  677.5271m 
 -392.47475m  122.3664m  699.9958m  144.9527m  677.4095m 
 -392.37475m  122.3902m  699.9958m  145.0941m  677.2919m 
 -392.27475m  122.4141m  699.9958m  145.2355m  677.1743m 
 -392.17475m  122.4379m  699.9958m  145.3769m  677.0568m 
 -392.07475m  122.4618m  699.9957m  145.5183m  676.9392m 
 -391.97475m  122.4857m  699.9957m  145.6597m  676.8217m 
 -391.87475m  122.5096m  699.9957m  145.8011m  676.7042m 
 -391.77475m  122.5335m  699.9957m  145.9425m  676.5867m 
 -391.67475m  122.5575m  699.9956m  146.0839m  676.4692m 
 -391.57475m  122.5815m  699.9956m  146.2253m  676.3518m 
 -391.47475m  122.6054m  699.9956m  146.3667m  676.2343m 
 -391.37475m  122.6294m  699.9956m  146.5081m  676.1169m 
 -391.27475m  122.6535m  699.9955m  146.6495m  675.9995m 
 -391.17475m  122.6775m  699.9955m  146.7909m  675.8822m 
 -391.07475m  122.7016m  699.9955m  146.9323m  675.7648m 
 -390.97475m  122.7257m  699.9955m  147.0737m  675.6475m 
 -390.87475m  122.7498m  699.9954m  147.2151m  675.5301m 
 -390.77475m  122.7739m  699.9954m  147.3565m  675.4129m 
 -390.67475m  122.7980m  699.9954m  147.4979m  675.2956m 
 -390.57475m  122.8222m  699.9954m  147.6393m  675.1783m 
 -390.47475m  122.8464m  699.9953m  147.7807m  675.0611m 
 -390.37475m  122.8706m  699.9953m  147.9220m  674.9439m 
 -390.27475m  122.8948m  699.9953m  148.0634m  674.8267m 
 -390.17475m  122.9191m  699.9953m  148.2048m  674.7095m 
 -390.07475m  122.9433m  699.9952m  148.3462m  674.5923m 
 -389.97475m  122.9676m  699.9952m  148.4876m  674.4752m 
 -389.87475m  122.9919m  699.9952m  148.6290m  674.3580m 
 -389.77475m  123.0162m  699.9951m  148.7704m  674.2409m 
 -389.67475m  123.0406m  699.9951m  148.9118m  674.1239m 
 -389.57475m  123.0649m  699.9951m  149.0532m  674.0068m 
 -389.47475m  123.0893m  699.9951m  149.1946m  673.8898m 
 -389.37475m  123.1137m  699.9950m  149.3360m  673.7727m 
 -389.27475m  123.1381m  699.9950m  149.4774m  673.6557m 
 -389.17475m  123.1625m  699.9950m  149.6188m  673.5387m 
 -389.07475m  123.1870m  699.9949m  149.7602m  673.4218m 
 -388.97475m  123.2115m  699.9949m  149.9015m  673.3048m 
 -388.87475m  123.2360m  699.9949m  150.0429m  673.1879m 
 -388.77475m  123.2605m  699.9948m  150.1843m  673.0710m 
 -388.67475m  123.2850m  699.9948m  150.3257m  672.9541m 
 -388.57475m  123.3096m  699.9948m  150.4671m  672.8372m 
 -388.47475m  123.3341m  699.9948m  150.6085m  672.7204m 
 -388.37475m  123.3587m  699.9947m  150.7499m  672.6036m 
 -388.27475m  123.3833m  699.9947m  150.8913m  672.4868m 
 -388.17475m  123.4080m  699.9947m  151.0327m  672.3700m 
 -388.07475m  123.4326m  699.9946m  151.1741m  672.2532m 
 -387.97475m  123.4573m  699.9946m  151.3155m  672.1365m 
 -387.87475m  123.4820m  699.9946m  151.4568m  672.0197m 
 -387.77475m  123.5067m  699.9945m  151.5982m  671.9030m 
 -387.67475m  123.5314m  699.9945m  151.7396m  671.7863m 
 -387.57475m  123.5562m  699.9945m  151.8810m  671.6697m 
 -387.47475m  123.5810m  699.9944m  152.0224m  671.5530m 
 -387.37475m  123.6058m  699.9944m  152.1638m  671.4364m 
 -387.27475m  123.6306m  699.9944m  152.3052m  671.3198m 
 -387.17475m  123.6554m  699.9943m  152.4466m  671.2032m 
 -387.07475m  123.6802m  699.9943m  152.5880m  671.0866m 
 -386.97475m  123.7051m  699.9943m  152.7293m  670.9701m 
 -386.87475m  123.7300m  699.9942m  152.8707m  670.8535m 
 -386.77475m  123.7549m  699.9942m  153.0121m  670.7370m 
 -386.67475m  123.7799m  699.9942m  153.1535m  670.6205m 
 -386.57475m  123.8048m  699.9941m  153.2949m  670.5041m 
 -386.47475m  123.8298m  699.9941m  153.4363m  670.3876m 
 -386.37475m  123.8548m  699.9941m  153.5777m  670.2712m 
 -386.27475m  123.8798m  699.9940m  153.7191m  670.1548m 
 -386.17475m  123.9048m  699.9940m  153.8604m  670.0384m 
 -386.07475m  123.9299m  699.9940m  154.0018m  669.9220m 
 -385.97475m  123.9549m  699.9939m  154.1432m  669.8057m 
 -385.87475m  123.9800m  699.9939m  154.2846m  669.6893m 
 -385.77475m  124.0051m  699.9939m  154.4260m  669.5730m 
 -385.67475m  124.0303m  699.9938m  154.5674m  669.4567m 
 -385.57475m  124.0554m  699.9938m  154.7088m  669.3405m 
 -385.47475m  124.0806m  699.9938m  154.8501m  669.2242m 
 -385.37475m  124.1058m  699.9937m  154.9915m  669.1080m 
 -385.27475m  124.1310m  699.9937m  155.1329m  668.9918m 
 -385.17475m  124.1562m  699.9936m  155.2743m  668.8756m 
 -385.07475m  124.1815m  699.9936m  155.4157m  668.7594m 
 -384.97475m  124.2068m  699.9936m  155.5571m  668.6433m 
 -384.87475m  124.2321m  699.9935m  155.6984m  668.5271m 
 -384.77475m  124.2574m  699.9935m  155.8398m  668.4110m 
 -384.67475m  124.2827m  699.9935m  155.9812m  668.2949m 
 -384.57475m  124.3081m  699.9934m  156.1226m  668.1789m 
 -384.47475m  124.3334m  699.9934m  156.2640m  668.0628m 
 -384.37475m  124.3588m  699.9933m  156.4054m  667.9468m 
 -384.27475m  124.3842m  699.9933m  156.5467m  667.8308m 
 -384.17475m  124.4097m  699.9933m  156.6881m  667.7148m 
 -384.07475m  124.4351m  699.9932m  156.8295m  667.5989m 
 -383.97475m  124.4606m  699.9932m  156.9709m  667.4829m 
 -383.87475m  124.4861m  699.9931m  157.1123m  667.3670m 
 -383.77475m  124.5116m  699.9931m  157.2536m  667.2511m 
 -383.67475m  124.5372m  699.9931m  157.3950m  667.1352m 
 -383.57475m  124.5627m  699.9930m  157.5364m  667.0193m 
 -383.47475m  124.5883m  699.9930m  157.6778m  666.9035m 
 -383.37475m  124.6139m  699.9929m  157.8192m  666.7877m 
 -383.27475m  124.6395m  699.9929m  157.9605m  666.6719m 
 -383.17475m  124.6652m  699.9928m  158.1019m  666.5561m 
 -383.07475m  124.6908m  699.9928m  158.2433m  666.4403m 
 -382.97475m  124.7165m  699.9928m  158.3847m  666.3246m 
 -382.87475m  124.7422m  699.9927m  158.5261m  666.2089m 
 -382.77475m  124.7679m  699.9927m  158.6674m  666.0932m 
 -382.67475m  124.7937m  699.9926m  158.8088m  665.9775m 
 -382.57475m  124.8195m  699.9926m  158.9502m  665.8618m 
 -382.47475m  124.8452m  699.9925m  159.0916m  665.7462m 
 -382.37475m  124.8710m  699.9925m  159.2330m  665.6306m 
 -382.27475m  124.8969m  699.9925m  159.3743m  665.5150m 
 -382.17475m  124.9227m  699.9924m  159.5157m  665.3994m 
 -382.07475m  124.9486m  699.9924m  159.6571m  665.2839m 
 -381.97475m  124.9745m  699.9923m  159.7985m  665.1683m 
 -381.87475m  125.0004m  699.9923m  159.9398m  665.0528m 
 -381.77475m  125.0263m  699.9922m  160.0812m  664.9373m 
 -381.67475m  125.0523m  699.9922m  160.2226m  664.8219m 
 -381.57475m  125.0782m  699.9921m  160.3640m  664.7064m 
 -381.47475m  125.1042m  699.9921m  160.5053m  664.5910m 
 -381.37475m  125.1303m  699.9921m  160.6467m  664.4756m 
 -381.27475m  125.1563m  699.9920m  160.7881m  664.3602m 
 -381.17475m  125.1823m  699.9920m  160.9295m  664.2448m 
 -381.07475m  125.2084m  699.9919m  161.0708m  664.1295m 
 -380.97475m  125.2345m  699.9919m  161.2122m  664.0142m 
 -380.87475m  125.2606m  699.9918m  161.3536m  663.8989m 
 -380.77475m  125.2868m  699.9918m  161.4950m  663.7836m 
 -380.67475m  125.3129m  699.9917m  161.6363m  663.6683m 
 -380.57475m  125.3391m  699.9917m  161.7777m  663.5531m 
 -380.47475m  125.3653m  699.9916m  161.9191m  663.4379m 
 -380.37475m  125.3915m  699.9916m  162.0604m  663.3227m 
 -380.27475m  125.4178m  699.9915m  162.2018m  663.2075m 
 -380.17475m  125.4441m  699.9915m  162.3432m  663.0923m 
 -380.07475m  125.4703m  699.9914m  162.4846m  662.9772m 
 -379.97475m  125.4967m  699.9914m  162.6259m  662.8621m 
 -379.87475m  125.5230m  699.9913m  162.7673m  662.7470m 
 -379.77475m  125.5493m  699.9913m  162.9087m  662.6319m 
 -379.67475m  125.5757m  699.9912m  163.0500m  662.5169m 
 -379.57475m  125.6021m  699.9912m  163.1914m  662.4018m 
 -379.47475m  125.6285m  699.9911m  163.3328m  662.2868m 
 -379.37475m  125.6549m  699.9911m  163.4742m  662.1719m 
 -379.27475m  125.6814m  699.9910m  163.6155m  662.0569m 
 -379.17475m  125.7079m  699.9910m  163.7569m  661.9419m 
 -379.07475m  125.7344m  699.9909m  163.8983m  661.8270m 
 -378.97475m  125.7609m  699.9909m  164.0396m  661.7121m 
 -378.87475m  125.7874m  699.9908m  164.1810m  661.5972m 
 -378.77475m  125.8140m  699.9907m  164.3224m  661.4824m 
 -378.67475m  125.8406m  699.9907m  164.4637m  661.3675m 
 -378.57475m  125.8672m  699.9906m  164.6051m  661.2527m 
 -378.47475m  125.8938m  699.9906m  164.7465m  661.1379m 
 -378.37475m  125.9205m  699.9905m  164.8878m  661.0232m 
 -378.27475m  125.9471m  699.9905m  165.0292m  660.9084m 
 -378.17475m  125.9738m  699.9904m  165.1706m  660.7937m 
 -378.07475m  126.0005m  699.9904m  165.3119m  660.6790m 
 -377.97475m  126.0273m  699.9903m  165.4533m  660.5643m 
 -377.87475m  126.0540m  699.9902m  165.5946m  660.4496m 
 -377.77475m  126.0808m  699.9902m  165.7360m  660.3350m 
 -377.67475m  126.1076m  699.9901m  165.8774m  660.2203m 
 -377.57475m  126.1344m  699.9901m  166.0187m  660.1057m 
 -377.47475m  126.1612m  699.9900m  166.1601m  659.9912m 
 -377.37475m  126.1881m  699.9899m  166.3015m  659.8766m 
 -377.27475m  126.2150m  699.9899m  166.4428m  659.7621m 
 -377.17475m  126.2419m  699.9898m  166.5842m  659.6475m 
 -377.07475m  126.2688m  699.9898m  166.7255m  659.5330m 
 -376.97475m  126.2958m  699.9897m  166.8669m  659.4186m 
 -376.87475m  126.3227m  699.9896m  167.0083m  659.3041m 
 -376.77475m  126.3497m  699.9896m  167.1496m  659.1897m 
 -376.67475m  126.3767m  699.9895m  167.2910m  659.0753m 
 -376.57475m  126.4038m  699.9895m  167.4323m  658.9609m 
 -376.47475m  126.4308m  699.9894m  167.5737m  658.8465m 
 -376.37475m  126.4579m  699.9893m  167.7151m  658.7322m 
 -376.27475m  126.4850m  699.9893m  167.8564m  658.6179m 
 -376.17475m  126.5121m  699.9892m  167.9978m  658.5036m 
 -376.07475m  126.5393m  699.9891m  168.1391m  658.3893m 
 -375.97475m  126.5664m  699.9891m  168.2805m  658.2750m 
 -375.87475m  126.5936m  699.9890m  168.4219m  658.1608m 
 -375.77475m  126.6208m  699.9890m  168.5632m  658.0466m 
 -375.67475m  126.6481m  699.9889m  168.7046m  657.9324m 
 -375.57475m  126.6753m  699.9888m  168.8459m  657.8182m 
 -375.47475m  126.7026m  699.9888m  168.9873m  657.7041m 
 -375.37475m  126.7299m  699.9887m  169.1286m  657.5899m 
 -375.27475m  126.7572m  699.9886m  169.2700m  657.4758m 
 -375.17475m  126.7845m  699.9886m  169.4113m  657.3618m 
 -375.07475m  126.8119m  699.9885m  169.5527m  657.2477m 
 -374.97475m  126.8393m  699.9884m  169.6940m  657.1337m 
 -374.87475m  126.8667m  699.9884m  169.8354m  657.0196m 
 -374.77475m  126.8941m  699.9883m  169.9768m  656.9056m 
 -374.67475m  126.9216m  699.9882m  170.1181m  656.7917m 
 -374.57475m  126.9490m  699.9881m  170.2595m  656.6777m 
 -374.47475m  126.9765m  699.9881m  170.4008m  656.5638m 
 -374.37475m  127.0040m  699.9880m  170.5422m  656.4499m 
 -374.27475m  127.0316m  699.9879m  170.6835m  656.3360m 
 -374.17475m  127.0591m  699.9879m  170.8249m  656.2221m 
 -374.07475m  127.0867m  699.9878m  170.9662m  656.1083m 
 -373.97475m  127.1143m  699.9877m  171.1076m  655.9945m 
 -373.87475m  127.1419m  699.9876m  171.2489m  655.8807m 
 -373.77475m  127.1696m  699.9876m  171.3903m  655.7669m 
 -373.67475m  127.1973m  699.9875m  171.5316m  655.6531m 
 -373.57475m  127.2249m  699.9874m  171.6730m  655.5394m 
 -373.47475m  127.2527m  699.9873m  171.8143m  655.4257m 
 -373.37475m  127.2804m  699.9873m  171.9556m  655.3120m 
 -373.27475m  127.3081m  699.9872m  172.0970m  655.1984m 
 -373.17475m  127.3359m  699.9871m  172.2383m  655.0847m 
 -373.07475m  127.3637m  699.9870m  172.3797m  654.9711m 
 -372.97475m  127.3916m  699.9870m  172.5210m  654.8575m 
 -372.87475m  127.4194m  699.9869m  172.6624m  654.7439m 
 -372.77475m  127.4473m  699.9868m  172.8037m  654.6304m 
 -372.67475m  127.4752m  699.9867m  172.9451m  654.5168m 
 -372.57475m  127.5031m  699.9867m  173.0864m  654.4033m 
 -372.47475m  127.5310m  699.9866m  173.2277m  654.2898m 
 -372.37475m  127.5590m  699.9865m  173.3691m  654.1764m 
 -372.27475m  127.5869m  699.9864m  173.5104m  654.0629m 
 -372.17475m  127.6149m  699.9863m  173.6518m  653.9495m 
 -372.07475m  127.6430m  699.9863m  173.7931m  653.8361m 
 -371.97475m  127.6710m  699.9862m  173.9344m  653.7227m 
 -371.87475m  127.6991m  699.9861m  174.0758m  653.6094m 
 -371.77475m  127.7272m  699.9860m  174.2171m  653.4961m 
 -371.67475m  127.7553m  699.9859m  174.3585m  653.3828m 
 -371.57475m  127.7834m  699.9858m  174.4998m  653.2695m 
 -371.47475m  127.8116m  699.9858m  174.6411m  653.1562m 
 -371.37475m  127.8398m  699.9857m  174.7825m  653.0430m 
 -371.27475m  127.8680m  699.9856m  174.9238m  652.9297m 
 -371.17475m  127.8962m  699.9855m  175.0651m  652.8166m 
 -371.07475m  127.9244m  699.9854m  175.2065m  652.7034m 
 -370.97475m  127.9527m  699.9853m  175.3478m  652.5902m 
 -370.87475m  127.9810m  699.9852m  175.4892m  652.4771m 
 -370.77475m  128.0093m  699.9852m  175.6305m  652.3640m 
 -370.67475m  128.0377m  699.9851m  175.7718m  652.2509m 
 -370.57475m  128.0660m  699.9850m  175.9132m  652.1379m 
 -370.47475m  128.0944m  699.9849m  176.0545m  652.0248m 
 -370.37475m  128.1228m  699.9848m  176.1958m  651.9118m 
 -370.27475m  128.1512m  699.9847m  176.3371m  651.7988m 
 -370.17475m  128.1797m  699.9846m  176.4785m  651.6858m 
 -370.07475m  128.2082m  699.9845m  176.6198m  651.5729m 
 -369.97475m  128.2367m  699.9844m  176.7611m  651.4600m 
 -369.87475m  128.2652m  699.9844m  176.9025m  651.3471m 
 -369.77475m  128.2937m  699.9843m  177.0438m  651.2342m 
 -369.67475m  128.3223m  699.9842m  177.1851m  651.1213m 
 -369.57475m  128.3509m  699.9841m  177.3265m  651.0085m 
 -369.47475m  128.3795m  699.9840m  177.4678m  650.8957m 
 -369.37475m  128.4081m  699.9839m  177.6091m  650.7829m 
 -369.27475m  128.4368m  699.9838m  177.7504m  650.6701m 
 -369.17475m  128.4655m  699.9837m  177.8918m  650.5574m 
 -369.07475m  128.4942m  699.9836m  178.0331m  650.4447m 
 -368.97475m  128.5229m  699.9835m  178.1744m  650.3320m 
 -368.87475m  128.5516m  699.9834m  178.3157m  650.2193m 
 -368.77475m  128.5804m  699.9833m  178.4570m  650.1067m 
 -368.67475m  128.6092m  699.9832m  178.5984m  649.9940m 
 -368.57475m  128.6380m  699.9831m  178.7397m  649.8814m 
 -368.47475m  128.6669m  699.9830m  178.8810m  649.7688m 
 -368.37475m  128.6957m  699.9829m  179.0223m  649.6563m 
 -368.27475m  128.7246m  699.9828m  179.1637m  649.5437m 
 -368.17475m  128.7535m  699.9827m  179.3050m  649.4312m 
 -368.07475m  128.7824m  699.9826m  179.4463m  649.3187m 
 -367.97475m  128.8114m  699.9825m  179.5876m  649.2063m 
 -367.87475m  128.8404m  699.9824m  179.7289m  649.0938m 
 -367.77475m  128.8694m  699.9823m  179.8702m  648.9814m 
 -367.67475m  128.8984m  699.9822m  180.0116m  648.8690m 
 -367.57475m  128.9274m  699.9821m  180.1529m  648.7566m 
 -367.47475m  128.9565m  699.9820m  180.2942m  648.6443m 
 -367.37475m  128.9856m  699.9819m  180.4355m  648.5320m 
 -367.27475m  129.0147m  699.9817m  180.5768m  648.4197m 
 -367.17475m  129.0439m  699.9816m  180.7181m  648.3074m 
 -367.07475m  129.0730m  699.9815m  180.8594m  648.1951m 
 -366.97475m  129.1022m  699.9814m  181.0008m  648.0829m 
 -366.87475m  129.1314m  699.9813m  181.1421m  647.9707m 
 -366.77475m  129.1607m  699.9812m  181.2834m  647.8585m 
 -366.67475m  129.1899m  699.9811m  181.4247m  647.7463m 
 -366.57475m  129.2192m  699.9810m  181.5660m  647.6342m 
 -366.47475m  129.2485m  699.9809m  181.7073m  647.5220m 
 -366.37475m  129.2778m  699.9807m  181.8486m  647.4099m 
 -366.27475m  129.3072m  699.9806m  181.9899m  647.2979m 
 -366.17475m  129.3365m  699.9805m  182.1312m  647.1858m 
 -366.07475m  129.3659m  699.9804m  182.2725m  647.0738m 
 -365.97475m  129.3953m  699.9803m  182.4138m  646.9618m 
 -365.87475m  129.4248m  699.9802m  182.5551m  646.8498m 
 -365.77475m  129.4542m  699.9800m  182.6964m  646.7379m 
 -365.67475m  129.4837m  699.9799m  182.8377m  646.6259m 
 -365.57475m  129.5132m  699.9798m  182.9790m  646.5140m 
 -365.47475m  129.5428m  699.9797m  183.1203m  646.4021m 
 -365.37475m  129.5723m  699.9796m  183.2616m  646.2903m 
 -365.27475m  129.6019m  699.9794m  183.4029m  646.1784m 
 -365.17475m  129.6315m  699.9793m  183.5442m  646.0666m 
 -365.07475m  129.6612m  699.9792m  183.6855m  645.9548m 
 -364.97475m  129.6908m  699.9791m  183.8268m  645.8430m 
 -364.87475m  129.7205m  699.9789m  183.9681m  645.7313m 
 -364.77475m  129.7502m  699.9788m  184.1094m  645.6196m 
 -364.67475m  129.7799m  699.9787m  184.2507m  645.5079m 
 -364.57475m  129.8097m  699.9786m  184.3920m  645.3962m 
 -364.47475m  129.8394m  699.9784m  184.5333m  645.2846m 
 -364.37475m  129.8692m  699.9783m  184.6746m  645.1729m 
 -364.27475m  129.8990m  699.9782m  184.8159m  645.0613m 
 -364.17475m  129.9289m  699.9781m  184.9572m  644.9497m 
 -364.07475m  129.9587m  699.9779m  185.0985m  644.8382m 
 -363.97475m  129.9886m  699.9778m  185.2398m  644.7266m 
 -363.87475m  130.0185m  699.9777m  185.3811m  644.6151m 
 -363.77475m  130.0485m  699.9775m  185.5223m  644.5037m 
 -363.67475m  130.0784m  699.9774m  185.6636m  644.3922m 
 -363.57475m  130.1084m  699.9773m  185.8049m  644.2807m 
 -363.47475m  130.1384m  699.9771m  185.9462m  644.1693m 
 -363.37475m  130.1684m  699.9770m  186.0875m  644.0579m 
 -363.27475m  130.1985m  699.9768m  186.2288m  643.9466m 
 -363.17475m  130.2286m  699.9767m  186.3701m  643.8352m 
 -363.07475m  130.2587m  699.9766m  186.5113m  643.7239m 
 -362.97475m  130.2888m  699.9764m  186.6526m  643.6126m 
 -362.87475m  130.3190m  699.9763m  186.7939m  643.5013m 
 -362.77475m  130.3491m  699.9761m  186.9352m  643.3901m 
 -362.67475m  130.3793m  699.9760m  187.0765m  643.2789m 
 -362.57475m  130.4095m  699.9759m  187.2177m  643.1677m 
 -362.47475m  130.4398m  699.9757m  187.3590m  643.0565m 
 -362.37475m  130.4701m  699.9756m  187.5003m  642.9453m 
 -362.27475m  130.5003m  699.9754m  187.6416m  642.8342m 
 -362.17475m  130.5307m  699.9753m  187.7828m  642.7231m 
 -362.07475m  130.5610m  699.9751m  187.9241m  642.6120m 
 -361.97475m  130.5914m  699.9750m  188.0654m  642.5010m 
 -361.87475m  130.6218m  699.9748m  188.2067m  642.3899m 
 -361.77475m  130.6522m  699.9747m  188.3479m  642.2789m 
 -361.67475m  130.6826m  699.9745m  188.4892m  642.1679m 
 -361.57475m  130.7131m  699.9744m  188.6305m  642.0570m 
 -361.47475m  130.7435m  699.9742m  188.7717m  641.9460m 
 -361.37475m  130.7741m  699.9741m  188.9130m  641.8351m 
 -361.27475m  130.8046m  699.9739m  189.0543m  641.7242m 
 -361.17475m  130.8351m  699.9738m  189.1955m  641.6134m 
 -361.07475m  130.8657m  699.9736m  189.3368m  641.5025m 
 -360.97475m  130.8963m  699.9735m  189.4781m  641.3917m 
 -360.87475m  130.9270m  699.9733m  189.6193m  641.2809m 
 -360.77475m  130.9576m  699.9731m  189.7606m  641.1701m 
 -360.67475m  130.9883m  699.9730m  189.9019m  641.0594m 
 -360.57475m  131.0190m  699.9728m  190.0431m  640.9487m 
 -360.47475m  131.0497m  699.9726m  190.1844m  640.8380m 
 -360.37475m  131.0805m  699.9725m  190.3256m  640.7273m 
 -360.27475m  131.1112m  699.9723m  190.4669m  640.6167m 
 -360.17475m  131.1420m  699.9722m  190.6081m  640.5060m 
 -360.07475m  131.1728m  699.9720m  190.7494m  640.3954m 
[...]
  256.45729m  399.9998m   30.6037m  393.2891m   37.3144m 
  256.55729m  399.9998m   30.5599m  393.3867m   37.1730m 
  256.65729m  399.9998m   30.5162m  393.4844m   37.0316m 
  256.75729m  399.9998m   30.4725m  393.5822m   36.8901m 
  256.85729m  399.9998m   30.4289m  393.6800m   36.7487m 
  256.95729m  399.9998m   30.3854m  393.7779m   36.6073m 
  257.05729m  399.9998m   30.3419m  393.8758m   36.4659m 
  257.15729m  399.9998m   30.2985m  393.9738m   36.3245m 
  257.25729m  399.9998m   30.2551m  394.0719m   36.1830m 
  257.35729m  399.9998m   30.2119m  394.1700m   36.0416m 
  257.45729m  399.9998m   30.1686m  394.2682m   35.9002m 
  257.55729m  399.9998m   30.1255m  394.3665m   35.7588m 
  257.65729m  399.9998m   30.0824m  394.4648m   35.6174m 
  257.75729m  399.9998m   30.0393m  394.5632m   35.4759m 
  257.85729m  399.9998m   29.9964m  394.6616m   35.3345m 
  257.95729m  399.9998m   29.9535m  394.7602m   35.1931m 
  258.05729m  399.9998m   29.9106m  394.8587m   35.0517m 
  258.15729m  399.9998m   29.8678m  394.9574m   34.9103m 
  258.25729m  399.9998m   29.8251m  395.0561m   34.7688m 
  258.35729m  399.9998m   29.7824m  395.1548m   34.6274m 
  258.45729m  399.9998m   29.7399m  395.2537m   34.4860m 
  258.55729m  399.9998m   29.6973m  395.3525m   34.3446m 
  258.65729m  399.9998m   29.6549m  395.4515m   34.2032m 
  258.75729m  399.9998m   29.6125m  395.5505m   34.0617m 
  258.85729m  399.9998m   29.5701m  395.6496m   33.9203m 
  258.95729m  399.9998m   29.5278m  395.7487m   33.7789m 
  259.05729m  399.9998m   29.4856m  395.8479m   33.6375m 
  259.15729m  399.9998m   29.4435m  395.9472m   33.4961m 
  259.25729m  399.9998m   29.4014m  396.0466m   33.3546m 
  259.35729m  399.9998m   29.3594m  396.1459m   33.2132m 
  259.45729m  399.9998m   29.3174m  396.2454m   33.0718m 
  259.55729m  399.9998m   29.2755m  396.3449m   32.9304m 
  259.65729m  399.9998m   29.2337m  396.4445m   32.7890m 
  259.75729m  399.9998m   29.1919m  396.5442m   32.6475m 
  259.85729m  399.9998m   29.1502m  396.6439m   32.5061m 
  259.95729m  399.9998m   29.1085m  396.7437m   32.3647m 
  260.05729m  399.9998m   29.0670m  396.8435m   32.2233m 
  260.15729m  399.9998m   29.0255m  396.9434m   32.0819m 
  260.25729m  399.9998m   28.9840m  397.0434m   31.9404m 
  260.35729m  399.9998m   28.9426m  397.1434m   31.7990m 
  260.45729m  399.9998m   28.9013m  397.2435m   31.6576m 
  260.55729m  399.9998m   28.8600m  397.3437m   31.5162m 
  260.65729m  399.9998m   28.8188m  397.4439m   31.3748m 
  260.75729m  399.9998m   28.7777m  397.5442m   31.2333m 
  260.85729m  399.9998m   28.7366m  397.6445m   31.0919m 
  260.95729m  399.9998m   28.6956m  397.7450m   30.9505m 
  261.05729m  399.9998m   28.6547m  397.8454m   30.8091m 
  261.15729m  399.9998m   28.6138m  397.9460m   30.6677m 
  261.25729m  399.9998m   28.5730m  398.0466m   30.5262m 
  261.35729m  399.9998m   28.5322m  398.1473m   30.3848m 
  261.45729m  399.9998m   28.4915m  398.2480m   30.2434m 
  261.55729m  399.9998m   28.4509m  398.3488m   30.1020m 
  261.65729m  399.9998m   28.4104m  398.4496m   29.9606m 
  261.75729m  399.9998m   28.3699m  398.5506m   29.8191m 
  261.85729m  399.9998m   28.3294m  398.6516m   29.6777m 
  261.95729m  399.9998m   28.2891m  398.7526m   29.5363m 
  262.05729m  399.9998m   28.2488m  398.8537m   29.3949m 
  262.15729m  399.9998m   28.2085m  398.9549m   29.2535m 
  262.25729m  399.9998m   28.1684m  399.0562m   29.1120m 
  262.35729m  399.9998m   28.1282m  399.1575m   28.9706m 
  262.45729m  399.9998m   28.0882m  399.2588m   28.8292m 
  262.55729m  399.9999m   28.0482m  399.3603m   28.6878m 
  262.65729m  399.9999m   28.0083m  399.4618m   28.5464m 
  262.75729m  399.9999m   27.9684m  399.5634m   28.4049m 
  262.85729m  399.9999m   27.9286m  399.6650m   28.2635m 
  262.95729m  399.9999m   27.8889m  399.7667m   28.1221m 
  263.05729m  399.9999m   27.8492m  399.8684m   27.9807m 
  263.15729m  399.9999m   27.8096m  399.9703m   27.8393m 
  263.25729m  399.9999m   27.7701m  400.0721m   27.6978m 
  263.35729m  399.9999m   27.7306m  400.1741m   27.5564m 
  263.45729m  399.9999m   27.6912m  400.2761m   27.4150m 
  263.55729m  399.9999m   27.6519m  400.3782m   27.2736m 
  263.65729m  399.9999m   27.6126m  400.4803m   27.1321m 
  263.75729m  399.9999m   27.5734m  400.5825m   26.9907m 
  263.85729m  399.9999m   27.5342m  400.6848m   26.8493m 
  263.95729m  399.9999m   27.4951m  400.7871m   26.7079m 
  264.05729m  399.9999m   27.4561m  400.8895m   26.5665m 
  264.15729m  399.9999m   27.4172m  400.9920m   26.4250m 
  264.25729m  399.9999m   27.3783m  401.0945m   26.2836m 
  264.35729m  399.9999m   27.3394m  401.1971m   26.1422m 
  264.45729m  399.9999m   27.3007m  401.2997m   26.0008m 
  264.55729m  399.9999m   27.2620m  401.4025m   25.8594m 
  264.65729m  399.9999m   27.2233m  401.5052m   25.7179m 
  264.75729m  399.9999m   27.1847m  401.6081m   25.5765m 
  264.85729m  399.9999m   27.1462m  401.7110m   25.4351m 
  264.95729m  399.9999m   27.1078m  401.8140m   25.2937m 
  265.05729m  399.9999m   27.0694m  401.9170m   25.1523m 
  265.15729m  399.9999m   27.0311m  402.0201m   25.0108m 
  265.25729m  399.9999m   26.9928m  402.1233m   24.8694m 
  265.35729m  399.9999m   26.9546m  402.2265m   24.7280m 
  265.45729m  399.9999m   26.9165m  402.3298m   24.5866m 
  265.55729m  399.9999m   26.8784m  402.4331m   24.4452m 
  265.65729m  399.9999m   26.8404m  402.5366m   24.3037m 
  265.75729m  399.9999m   26.8025m  402.6400m   24.1623m 
  265.85729m  399.9999m   26.7646m  402.7436m   24.0209m 
  265.95729m  399.9999m   26.7268m  402.8472m   23.8795m 
  266.05729m  399.9999m   26.6891m  402.9509m   23.7381m 
  266.15729m  399.9999m   26.6514m  403.0546m   23.5966m 
  266.25729m  399.9999m   26.6137m  403.1584m   23.4552m 
  266.35729m  399.9999m   26.5762m  403.2623m   23.3138m 
  266.45729m  399.9999m   26.5387m  403.3662m   23.1724m 
  266.55729m  399.9999m   26.5013m  403.4702m   23.0310m 
  266.65729m  399.9999m   26.4639m  403.5743m   22.8895m 
  266.75729m  399.9999m   26.4266m  403.6784m   22.7481m 
  266.85729m  399.9999m   26.3894m  403.7826m   22.6067m 
  266.95729m  399.9999m   26.3522m  403.8868m   22.4653m 
  267.05729m  399.9999m   26.3151m  403.9911m   22.3239m 
  267.15729m  399.9999m   26.2780m  404.0955m   22.1824m 
  267.25729m  399.9999m   26.2411m  404.1999m   22.0410m 
  267.35729m  399.9999m   26.2041m  404.3044m   21.8996m 
  267.45729m  399.9999m   26.1673m  404.4090m   21.7582m 
  267.55729m  399.9999m   26.1305m  404.5136m   21.6167m 
  267.65729m  399.9999m   26.0938m  404.6183m   21.4753m 
  267.75729m  399.9999m   26.0571m  404.7231m   21.3339m 
  267.85729m  399.9999m   26.0205m  404.8279m   21.1925m 
  267.95729m  399.9999m   25.9840m  404.9328m   21.0511m 
  268.05729m  399.9999m   25.9475m  405.0377m   20.9096m 
  268.15729m  399.9999m   25.9111m  405.1427m   20.7682m 
  268.25729m  399.9999m   25.8747m  405.2478m   20.6268m 
  268.35729m  399.9999m   25.8384m  405.3530m   20.4854m 
  268.45729m  399.9999m   25.8022m  405.4582m   20.3440m 
  268.55729m  399.9999m   25.7661m  405.5634m   20.2025m 
  268.65729m  399.9999m   25.7300m  405.6688m   20.0611m 
  268.75729m  399.9999m   25.6939m  405.7741m   19.9197m 
  268.85729m  399.9999m   25.6580m  405.8796m   19.7783m 
  268.95729m  399.9999m   25.6221m  405.9851m   19.6369m 
  269.05729m  399.9999m   25.5862m  406.0907m   19.4954m 
  269.15729m  399.9999m   25.5504m  406.1963m   19.3540m 
  269.25729m  399.9999m   25.5147m  406.3020m   19.2126m 
  269.35729m  399.9999m   25.4791m  406.4078m   19.0712m 
  269.45729m  399.9999m   25.4435m  406.5136m   18.9298m 
  269.55729m  399.9999m   25.4080m  406.6195m   18.7883m 
  269.65729m  399.9999m   25.3725m  406.7255m   18.6469m 
  269.75729m  399.9999m   25.3371m  406.8315m   18.5055m 
  269.85729m  399.9999m   25.3018m  406.9376m   18.3641m 
  269.95729m  399.9999m   25.2665m  407.0437m   18.2227m 
  270.05729m  399.9999m   25.2313m  407.1500m   18.0812m 
  270.15729m  399.9999m   25.1961m  407.2562m   17.9398m 
  270.25729m  399.9999m   25.1610m  407.3626m   17.7984m 
  270.35729m  399.9999m   25.1260m  407.4690m   17.6570m 
  270.45729m  399.9999m   25.0911m  407.5754m   17.5155m 
  270.55729m  399.9999m   25.0562m  407.6819m   17.3741m 
  270.65729m  399.9999m   25.0213m  407.7885m   17.2327m 
  270.75729m  399.9999m   24.9865m  407.8952m   17.0913m 
  270.85729m  399.9999m   24.9518m  408.0019m   16.9499m 
  270.95729m  399.9999m   24.9172m  408.1087m   16.8084m 
  271.05729m  399.9999m   24.8826m  408.2155m   16.6670m 
  271.15729m  399.9999m   24.8481m  408.3224m   16.5256m 
  271.25729m  399.9999m   24.8136m  408.4294m   16.3842m 
  271.35729m  399.9999m   24.7792m  408.5364m   16.2428m 
  271.45729m  399.9999m   24.7449m  408.6435m   16.1013m 
  271.55729m  399.9999m   24.7106m  408.7506m   15.9599m 
  271.65729m  399.9999m   24.6764m  408.8578m   15.8185m 
  271.75729m  399.9999m   24.6422m  408.9651m   15.6771m 
  271.85729m  399.9999m   24.6082m  409.0724m   15.5357m 
  271.95729m  399.9999m   24.5741m  409.1798m   15.3942m 
  272.05729m  399.9999m   24.5402m  409.2873m   15.2528m 
  272.15729m  399.9999m   24.5063m  409.3948m   15.1114m 
  272.25729m  399.9999m   24.4724m  409.5024m   14.9700m 
  272.35729m  399.9999m   24.4387m  409.6100m   14.8286m 
  272.45729m  399.9999m   24.4049m  409.7177m   14.6871m 
  272.55729m  399.9999m   24.3713m  409.8255m   14.5457m 
  272.65729m  399.9999m   24.3377m  409.9333m   14.4043m 
  272.75729m  399.9999m   24.3042m  410.0412m   14.2629m 
  272.85729m  399.9999m   24.2707m  410.1492m   14.1214m 
  272.95729m  399.9999m   24.2373m  410.2572m   13.9800m 
  273.05729m  399.9999m   24.2039m  410.3653m   13.8386m 
  273.15729m  399.9999m   24.1707m  410.4734m   13.6972m 
  273.25729m  399.9999m   24.1374m  410.5816m   13.5558m 
  273.35729m  399.9999m   24.1043m  410.6899m   13.4143m 
  273.45729m  399.9999m   24.0712m  410.7982m   13.2729m 
  273.55729m  399.9999m   24.0381m  410.9066m   13.1315m 
  273.65729m  399.9999m   24.0052m  411.0150m   12.9901m 
  273.75729m  399.9999m   23.9722m  411.1235m   12.8487m 
  273.85729m  399.9999m   23.9394m  411.2321m   12.7072m 
  273.95729m  399.9999m   23.9066m  411.3407m   12.5658m 
  274.05729m  399.9999m   23.8739m  411.4494m   12.4244m 
  274.15729m  399.9999m   23.8412m  411.5581m   12.2830m 
  274.25729m  399.9999m   23.8086m  411.6670m   12.1416m 
  274.35729m  399.9999m   23.7760m  411.7758m   12.0001m 
  274.45729m  399.9999m   23.7435m  411.8848m   11.8587m 
  274.55729m  399.9999m   23.7111m  411.9938m   11.7173m 
  274.65729m  399.9999m   23.6788m  412.1028m   11.5759m 
  274.75729m  399.9999m   23.6464m  412.2119m   11.4345m 
  274.85729m  399.9999m   23.6142m  412.3211m   11.2930m 
  274.95729m  399.9999m   23.5820m  412.4303m   11.1516m 
  275.05729m  399.9999m   23.5499m  412.5396m   11.0102m 
  275.15729m  399.9999m   23.5178m  412.6490m   10.8688m 
  275.25729m  399.9999m   23.4858m  412.7584m   10.7273m 
  275.35729m  399.9999m   23.4539m  412.8679m   10.5859m 
  275.45729m  399.9999m   23.4220m  412.9774m   10.4445m 
  275.55729m  399.9999m   23.3902m  413.0870m   10.3031m 
  275.65729m  399.9999m   23.3584m  413.1967m   10.1617m 
  275.75729m  399.9999m   23.3267m  413.3064m   10.0202m 
  275.85729m  399.9999m   23.2951m  413.4162m    9.8788m 
  275.95729m  399.9999m   23.2635m  413.5260m    9.7374m 
  276.05729m  399.9999m   23.2320m  413.6359m    9.5960m 
  276.15729m  399.9999m   23.2005m  413.7459m    9.4546m 
  276.25729m  399.9999m   23.1691m  413.8559m    9.3131m 
  276.35729m  399.9999m   23.1378m  413.9660m    9.1717m 
  276.45729m  399.9999m   23.1065m  414.0761m    9.0303m 
  276.55729m  399.9999m   23.0753m  414.1863m    8.8889m 
  276.65729m  399.9999m   23.0441m  414.2966m    8.7475m 
  276.75729m  399.9999m   23.0130m  414.4069m    8.6060m 
  276.85729m  399.9999m   22.9819m  414.5173m    8.4646m 
  276.95729m  399.9999m   22.9510m  414.6277m    8.3232m 
  277.05729m  399.9999m   22.9200m  414.7382m    8.1818m 
  277.15729m  399.9999m   22.8892m  414.8488m    8.0403m 
  277.25729m  399.9999m   22.8584m  414.9594m    7.8989m 
  277.35729m  399.9999m   22.8276m  415.0701m    7.7575m 
  277.45729m  399.9999m   22.7969m  415.1808m    7.6161m 
  277.55729m  399.9999m   22.7663m  415.2916m    7.4747m 
  277.65729m  399.9999m   22.7357m  415.4024m    7.3332m 
  277.75729m  399.9999m   22.7052m  415.5133m    7.1918m 
  277.85729m  399.9999m   22.6748m  415.6243m    7.0504m 
  277.95729m  399.9999m   22.6444m  415.7353m    6.9090m 
  278.05729m  399.9999m   22.6140m  415.8464m    6.7676m 
  278.15729m  399.9999m   22.5838m  415.9576m    6.6261m 
  278.25729m  399.9999m   22.5535m  416.0688m    6.4847m 
  278.35729m  399.9999m   22.5234m  416.1800m    6.3433m 
  278.45729m  399.9999m   22.4933m  416.2914m    6.2019m 
  278.55729m  399.9999m   22.4632m  416.4027m    6.0605m 
  278.65729m  399.9999m   22.4333m  416.5142m    5.9190m 
  278.75729m  399.9999m   22.4033m  416.6257m    5.7776m 
  278.85729m  399.9999m   22.3735m  416.7372m    5.6362m 
  278.95729m  399.9999m   22.3437m  416.8488m    5.4948m 
  279.05729m  399.9999m   22.3139m  416.9605m    5.3533m 
  279.15729m  399.9999m   22.2842m  417.0722m    5.2119m 
  279.25729m  400.0000m   22.2546m  417.1840m    5.0705m 
  279.35729m  400.0000m   22.2250m  417.2959m    4.9291m 
  279.45729m  400.0000m   22.1955m  417.4078m    4.7877m 
  279.55729m  400.0000m   22.1660m  417.5197m    4.6462m 
  279.65729m  400.0000m   22.1366m  417.6317m    4.5048m 
  279.75729m  400.0000m   22.1073m  417.7438m    4.3634m 
  279.85729m  400.0000m   22.0780m  417.8559m    4.2220m 
  279.95729m  400.0000m   22.0487m  417.9681m    4.0806m 
  280.05729m  400.0000m   22.0196m  418.0804m    3.9391m 
  280.15729m  400.0000m   21.9904m  418.1927m    3.7977m 
  280.25729m  400.0000m   21.9614m  418.3050m    3.6563m 
  280.35729m  400.0000m   21.9324m  418.4175m    3.5149m 
  280.45729m  400.0000m   21.9034m  418.5299m    3.3735m 
  280.55729m  400.0000m   21.8745m  418.6425m    3.2320m 
  280.65729m  400.0000m   21.8457m  418.7550m    3.0906m 
  280.75729m  400.0000m   21.8169m  418.8677m    2.9492m 
  280.85729m  400.0000m   21.7882m  418.9804m    2.8078m 
  280.95729m  400.0000m   21.7595m  419.0931m    2.6663m 
  281.05729m  400.0000m   21.7309m  419.2060m    2.5249m 
  281.15729m  400.0000m   21.7024m  419.3188m    2.3835m 
  281.25729m  400.0000m   21.6739m  419.4318m    2.2421m 
  281.35729m  400.0000m   21.6455m  419.5447m    2.1007m 
  281.45729m  400.0000m   21.6171m  419.6578m    1.9592m 
  281.55729m  400.0000m   21.5888m  419.7709m    1.8178m 
  281.65729m  400.0000m   21.5605m  419.8840m    1.6764m 
  281.75729m  400.0000m   21.5323m  419.9972m    1.5350m 
  281.85729m  400.0000m   21.5041m  420.1105m    1.3936m 
  281.95729m  400.0000m   21.4760m  420.2238m    1.2521m 
  282.05729m  400.0000m   21.4480m  420.3372m    1.1107m 
  282.15729m  400.0000m   21.4200m  420.4506m  969.2956u 
  282.25729m  400.0000m   21.3920m  420.5641m  827.8745u 
  282.35729m  400.0000m   21.3642m  420.6777m  686.4534u 
  282.45729m  400.0000m   21.3363m  420.7913m  545.0323u 
  282.55729m  400.0000m   21.3086m  420.9049m  403.6112u 
  282.65729m  400.0000m   21.2809m  421.0186m  262.1901u 
  282.75729m  400.0000m   21.2532m  421.1324m  120.7689u 
y
 max_1= 128.4869m    at=-135.5427m
             from=-282.8427m    to= 282.7573m
 max_2= 128.4869m    at= 135.5573m
             from=-282.8427m    to= 282.7573m
 snm=  90.8540m
 ******  
 .title noise margin in hold operation

 ****** operating point information tnom=  25.000 temp=  25.000 ******
 ****** operating point status is all       simulation time is     0.     
    node    =voltage      node    =voltage      node    =voltage

 +0:bl      = 400.0000m 0:blb     = 400.0000m 0:gl      = 217.3964m
 +0:gr      = 217.3964m 0:q       = 217.3964m 0:qb      = 217.3964m
 +0:u       =   0.      0:v1      = 307.4449m 0:v2      = 307.4449m
 +0:vdd     = 400.0000m 0:wl      = 400.0000m 0:x       = 316.4102m


 **** voltage sources

 subckt                                   
 element  0:vu       0:vvdd     0:vwl     
  volts      0.       400.0000m  400.0000m
  current    0.        -5.3165n  -26.8003f
  power      0.         2.1266n   10.7201f

     total voltage source power dissipation=    2.1266n       watts



 **** voltage-controlled voltage sources


 subckt                                              
 element  0:eli      0:ev1      0:eri      0:ev2     
  volts    217.3964m  307.4449m  217.3964m  307.4449m
  current   -7.8496f    0.        -7.8496f    0.     





 **** mosfets


 subckt                                                                    
 element  0:mpr      0:mnr      0:mpl      0:mnl      0:mnpr     0:mnpl    
 model    0:pmos_sra 0:nmos_sra 0:pmos_sra 0:nmos_sra 0:nmos_sra 0:nmos_sra
 region   Subth      Subth      Subth      Subth      Subth      Subth     
  id        -2.6583n    3.5848n   -2.6583n    3.5848n  926.5404p  926.5404p
  ibs        0.         0.         0.         0.         0.         0.     
  ibd        0.         0.         0.         0.         0.         0.     
  vgs     -182.6036m  217.3964m -182.6036m  217.3964m  182.6036m  182.6036m
  vds     -182.6036m  217.3964m -182.6036m  217.3964m  182.6036m  182.6036m
  vbs      -83.5898m  316.4102m  -83.5898m  316.4102m   99.0138m   99.0138m
  vth     -337.2024m  409.3183m -337.2024m  409.3183m  409.4965m  409.4965m
  vdsat    -73.0675m   70.7065m  -73.0675m   70.7065m   70.6788m   70.6788m
  vod      154.5988m -191.9219m  154.5988m -191.9219m -226.8929m -226.8929m
  beta       1.6413m    4.3473m    1.6413m    4.3473m    4.3473m    4.3473m
  gam eff    0.         0.         0.         0.         0.         0.     
  gm       101.7736n  136.3173n  101.7736n  136.3173n   35.2826n   35.2826n
  gds        2.7589n    2.8024n    2.7589n    2.8024n  822.8869p  822.8869p
  gmb       31.7255f   52.1792f   31.7255f   52.1792f   11.0222f   11.0222f
  cdtot     10.2221a   20.4450a   10.2221a   20.4450a   20.4450a   20.4450a
  cgtot     20.5763a   40.9568a   20.5763a   40.9568a   40.9077a   40.9077a
  cstot     10.3097a   20.4904a   10.3097a   20.4904a   20.4570a   20.4570a
  cbtot      0.         0.         0.         0.         0.         0.     
  cgs       10.3554a   20.5121a   10.3554a   20.5121a   20.4628a   20.4628a
  cgd       10.2209a   20.4447a   10.2209a   20.4447a   20.4450a   20.4450a




          ***** job concluded
 ******  
 .title noise margin in hold operation

 ****** job statistics summary tnom=  25.000 temp=  25.000 ******

  ******  Circuit Statistics  ******
  # nodes       =      13 # elements   =      15
  # resistors   =       0 # capacitors =       2 # inductors   =       0
  # mutual_inds =       0 # vccs       =       0 # vcvs        =       4
  # cccs        =       0 # ccvs       =       0 # volt_srcs   =       3
  # curr_srcs   =       0 # diodes     =       0 # bjts        =       0
  # jfets       =       0 # mosfets    =       6 # U elements  =       0
  # T elements  =       0 # W elements =       0 # B elements  =       0
  # S elements  =       0 # P elements =       0 # va device   =       0
  # vector_srcs =       0 # N elements =       0


  ******  Runtime Statistics (seconds)  ******

  analysis           time    # points   tot. iter  conv.iter
  op point           0.02           1           8
  dc sweep           0.40        5657       16974
  readin             0.00
  errchk             0.00
  setup              0.00
  output             0.00


           peak memory used        406.95 megabytes
           total cpu time            0.46 seconds
           total elapsed time        0.47 seconds
           job started at     23:02:41 03/23/2025
           job ended   at     23:02:44 03/23/2025
           job total runtime         2.84 seconds


 lic: Release hspice token(s) 
 lic: total license checkout elapse time:        0.19(s)
