 ****** HSPICE -- Q-2020.03-SP2-2 linux64 (Nov  1 2020) ******                  
  Copyright (c) 1986 - 2025 by Synopsys, Inc. All Rights Reserved.              
  This software and the associated documentation are proprietary
  to Synopsys, Inc. This software may only be used in accordance
  with the terms and conditions of a written license agreement with
  Synopsys, Inc. All other use, reproduction, or distribution of
  this software is strictly prohibited.
  Input File: SRAM_SNM_FF.sp                                                    
  Command line options: /RAID2/cad/synopsys/hspice/2020.03-sp2-2/hspice/linux64/hspice -i SRAM_SNM_FF.sp -o SRAM_SNM_FF.lis
  Start time: Sun Mar 23 13:40:36 2025
 lic:  
 lic: FLEXlm: SDK_12.6 
 lic: USER:   es25MCS042           HOSTNAME: ee28 
 lic: HOSTID: "d85ed3efc19a"       PID:      127493 
 lic: Using FLEXlm license file: 
 lic: 26585@lshc 
 lic: Checkout 1 hspice 
 lic: License/Maintenance for hspice will expire on 14-may-2025/2024.09 
 lic: 180(in_use)/1100(total) FLOATING license(s) on SERVER 26585@lshc 
 lic:   
  
      
             
 Warning:'Floating bulk' occurs 1 times
 Summary of floating bulk:
 -----------------------
 |Node      |Device    |
 |----------+----------|
 |x         |mpr       |
 -----------------------
              
 *****************************************************************
 ******  option summary
 ******
 runlvl  = 3         bypass  = 2.0000    
 ******
 .title noise margin in hold operation

 ****** dc transfer curves tnom=  25.000 temp=  25.000 ******
x

 volt         voltage    voltage    voltage    voltage   
             q          qb         gl         gr         
 -494.97475m   20.9270n  700.0000m  -18.8657n  700.0000m 
 -494.87475m   21.0045n  700.0000m  141.4024u  699.8586m 
 -494.77475m   21.0825n  700.0000m  282.8237u  699.7172m 
 -494.67475m   21.1610n  700.0000m  424.2450u  699.5758m 
 -494.57475m   21.2399n  700.0000m  565.6662u  699.4343m 
 -494.47475m   21.3193n  700.0000m  707.0875u  699.2929m 
 -494.37475m   21.3991n  700.0000m  848.5088u  699.1515m 
 -494.27475m   21.4793n  700.0000m  989.9300u  699.0101m 
 -494.17475m   21.5601n  700.0000m    1.1314m  698.8687m 
 -494.07475m   21.6413n  700.0000m    1.2728m  698.7272m 
 -493.97475m   21.7229n  700.0000m    1.4142m  698.5858m 
 -493.87475m   21.8050n  700.0000m    1.5556m  698.4444m 
 -493.77475m   21.8876n  700.0000m    1.6970m  698.3030m 
 -493.67475m   21.9707n  700.0000m    1.8385m  698.1615m 
 -493.57475m   22.0542n  700.0000m    1.9799m  698.0201m 
 -493.47475m   22.1383n  700.0000m    2.1213m  697.8787m 
 -493.37475m   22.2228n  700.0000m    2.2627m  697.7373m 
 -493.27475m   22.3078n  700.0000m    2.4041m  697.5959m 
 -493.17475m   22.3932n  700.0000m    2.5456m  697.4544m 
 -493.07475m   22.4792n  700.0000m    2.6870m  697.3130m 
 -492.97475m   22.5657n  700.0000m    2.8284m  697.1716m 
 -492.87475m   22.6526n  700.0000m    2.9698m  697.0302m 
 -492.77475m   22.7401n  700.0000m    3.1112m  696.8888m 
 -492.67475m   22.8280n  700.0000m    3.2527m  696.7473m 
 -492.57475m   22.9165n  700.0000m    3.3941m  696.6059m 
 -492.47475m   23.0055n  700.0000m    3.5355m  696.4645m 
 -492.37475m   23.0949n  700.0000m    3.6769m  696.3231m 
 -492.27475m   23.1849n  700.0000m    3.8184m  696.1816m 
 -492.17475m   23.2754n  700.0000m    3.9598m  696.0402m 
 -492.07475m   23.3664n  700.0000m    4.1012m  695.8988m 
 -491.97475m   23.4580n  700.0000m    4.2426m  695.7574m 
 -491.87475m   23.5501n  700.0000m    4.3840m  695.6160m 
 -491.77475m   23.6427n  700.0000m    4.5255m  695.4745m 
 -491.67475m   23.7358n  700.0000m    4.6669m  695.3331m 
 -491.57475m   23.8295n  700.0000m    4.8083m  695.1917m 
 -491.47475m   23.9237n  700.0000m    4.9497m  695.0503m 
 -491.37475m   24.0184n  700.0000m    5.0911m  694.9089m 
 -491.27475m   24.1137n  700.0000m    5.2326m  694.7674m 
 -491.17475m   24.2095n  700.0000m    5.3740m  694.6260m 
 -491.07475m   24.3059n  700.0000m    5.5154m  694.4846m 
 -490.97475m   24.4028n  700.0000m    5.6568m  694.3432m 
 -490.87475m   24.5003n  700.0000m    5.7983m  694.2017m 
 -490.77475m   24.5984n  700.0000m    5.9397m  694.0603m 
 -490.67475m   24.6970n  700.0000m    6.0811m  693.9189m 
 -490.57475m   24.7961n  700.0000m    6.2225m  693.7775m 
 -490.47475m   24.8959n  700.0000m    6.3639m  693.6361m 
 -490.37475m   24.9962n  700.0000m    6.5054m  693.4946m 
 -490.27475m   25.0971n  700.0000m    6.6468m  693.3532m 
 -490.17475m   25.1986n  700.0000m    6.7882m  693.2118m 
 -490.07475m   25.3006n  700.0000m    6.9296m  693.0704m 
 -489.97475m   25.4032n  700.0000m    7.0710m  692.9290m 
 -489.87475m   25.5065n  700.0000m    7.2125m  692.7875m 
 -489.77475m   25.6103n  700.0000m    7.3539m  692.6461m 
 -489.67475m   25.7147n  700.0000m    7.4953m  692.5047m 
 -489.57475m   25.8197n  700.0000m    7.6367m  692.3633m 
 -489.47475m   25.9253n  700.0000m    7.7782m  692.2219m 
 -489.37475m   26.0315n  700.0000m    7.9196m  692.0804m 
 -489.27475m   26.1383n  700.0000m    8.0610m  691.9390m 
 -489.17475m   26.2458n  700.0000m    8.2024m  691.7976m 
 -489.07475m   26.3538n  700.0000m    8.3438m  691.6562m 
 -488.97475m   26.4625n  700.0000m    8.4853m  691.5147m 
 -488.87475m   26.5718n  700.0000m    8.6267m  691.3733m 
 -488.77475m   26.6817n  700.0000m    8.7681m  691.2319m 
 -488.67475m   26.7923n  700.0000m    8.9095m  691.0905m 
 -488.57475m   26.9035n  700.0000m    9.0509m  690.9491m 
 -488.47475m   27.0153n  700.0000m    9.1924m  690.8076m 
 -488.37475m   27.1278n  700.0000m    9.3338m  690.6662m 
 -488.27475m   27.2409n  700.0000m    9.4752m  690.5248m 
 -488.17475m   27.3546n  700.0000m    9.6166m  690.3834m 
 -488.07475m   27.4690n  700.0000m    9.7580m  690.2420m 
 -487.97475m   27.5841n  700.0000m    9.8995m  690.1005m 
 -487.87475m   27.6998n  700.0000m   10.0409m  689.9591m 
 -487.77475m   27.8162n  700.0000m   10.1823m  689.8177m 
 -487.67475m   27.9333n  700.0000m   10.3237m  689.6763m 
 -487.57475m   28.0510n  700.0000m   10.4652m  689.5348m 
 -487.47475m   28.1694n  700.0000m   10.6066m  689.3934m 
 -487.37475m   28.2885n  700.0000m   10.7480m  689.2520m 
 -487.27475m   28.4083n  700.0000m   10.8894m  689.1106m 
 -487.17475m   28.5287n  700.0000m   11.0308m  688.9692m 
 -487.07475m   28.6499n  700.0000m   11.1723m  688.8277m 
 -486.97475m   28.7717n  700.0000m   11.3137m  688.6863m 
 -486.87475m   28.8942n  700.0000m   11.4551m  688.5449m 
 -486.77475m   29.0175n  700.0000m   11.5965m  688.4035m 
 -486.67475m   29.1414n  700.0000m   11.7379m  688.2621m 
 -486.57475m   29.2661n  700.0000m   11.8794m  688.1206m 
 -486.47475m   29.3915n  700.0000m   12.0208m  687.9792m 
 -486.37475m   29.5176n  700.0000m   12.1622m  687.8378m 
 -486.27475m   29.6444n  700.0000m   12.3036m  687.6964m 
 -486.17475m   29.7719n  700.0000m   12.4451m  687.5550m 
 -486.07475m   29.9002n  700.0000m   12.5865m  687.4135m 
 -485.97475m   30.0292n  700.0000m   12.7279m  687.2721m 
 -485.87475m   30.1590n  700.0000m   12.8693m  687.1307m 
 -485.77475m   30.2894n  700.0000m   13.0107m  686.9893m 
 -485.67475m   30.4207n  700.0000m   13.1522m  686.8478m 
 -485.57475m   30.5527n  700.0000m   13.2936m  686.7064m 
 -485.47475m   30.6854n  700.0000m   13.4350m  686.5650m 
 -485.37475m   30.8190n  700.0000m   13.5764m  686.4236m 
 -485.27475m   30.9532n  700.0000m   13.7178m  686.2822m 
 -485.17475m   31.0883n  700.0000m   13.8593m  686.1407m 
 -485.07475m   31.2241n  700.0000m   14.0007m  685.9993m 
 -484.97475m   31.3607n  700.0000m   14.1421m  685.8579m 
 -484.87475m   31.4981n  700.0000m   14.2835m  685.7165m 
 -484.77475m   31.6363n  700.0000m   14.4249m  685.5751m 
 -484.67475m   31.7753n  700.0000m   14.5664m  685.4336m 
 -484.57475m   31.9150n  700.0000m   14.7078m  685.2922m 
 -484.47475m   32.0556n  700.0000m   14.8492m  685.1508m 
 -484.37475m   32.1970n  700.0000m   14.9906m  685.0094m 
 -484.27475m   32.3391n  700.0000m   15.1321m  684.8679m 
 -484.17475m   32.4821n  700.0000m   15.2735m  684.7265m 
 -484.07475m   32.6260n  700.0000m   15.4149m  684.5851m 
 -483.97475m   32.7706n  700.0000m   15.5563m  684.4437m 
 -483.87475m   32.9161n  700.0000m   15.6977m  684.3023m 
 -483.77475m   33.0624n  700.0000m   15.8392m  684.1608m 
 -483.67475m   33.2096n  700.0000m   15.9806m  684.0194m 
 -483.57475m   33.3576n  700.0000m   16.1220m  683.8780m 
 -483.47475m   33.5064n  700.0000m   16.2634m  683.7366m 
 -483.37475m   33.6561n  700.0000m   16.4048m  683.5952m 
 -483.27475m   33.8067n  700.0000m   16.5463m  683.4537m 
 -483.17475m   33.9581n  700.0000m   16.6877m  683.3123m 
 -483.07475m   34.1104n  700.0000m   16.8291m  683.1709m 
 -482.97475m   34.2635n  700.0000m   16.9705m  683.0295m 
 -482.87475m   34.4176n  700.0000m   17.1120m  682.8881m 
 -482.77475m   34.5725n  700.0000m   17.2534m  682.7466m 
 -482.67475m   34.7283n  700.0000m   17.3948m  682.6052m 
 -482.57475m   34.8851n  700.0000m   17.5362m  682.4638m 
 -482.47475m   35.0427n  700.0000m   17.6776m  682.3224m 
 -482.37475m   35.2012n  700.0000m   17.8191m  682.1809m 
 -482.27475m   35.3606n  700.0000m   17.9605m  682.0395m 
 -482.17475m   35.5210n  700.0000m   18.1019m  681.8981m 
 -482.07475m   35.6822n  700.0000m   18.2433m  681.7567m 
 -481.97475m   35.8444n  700.0000m   18.3847m  681.6153m 
 -481.87475m   36.0075n  700.0000m   18.5262m  681.4738m 
 -481.77475m   36.1716n  700.0000m   18.6676m  681.3324m 
 -481.67475m   36.3366n  700.0000m   18.8090m  681.1910m 
 -481.57475m   36.5025n  700.0000m   18.9504m  681.0496m 
 -481.47475m   36.6694n  700.0000m   19.0918m  680.9082m 
 -481.37475m   36.8373n  700.0000m   19.2333m  680.7667m 
 -481.27475m   37.0061n  700.0000m   19.3747m  680.6253m 
 -481.17475m   37.1759n  700.0000m   19.5161m  680.4839m 
 -481.07475m   37.3467n  700.0000m   19.6575m  680.3425m 
 -480.97475m   37.5184n  700.0000m   19.7990m  680.2010m 
 -480.87475m   37.6911n  700.0000m   19.9404m  680.0596m 
 -480.77475m   37.8648n  700.0000m   20.0818m  679.9182m 
 -480.67475m   38.0396n  700.0000m   20.2232m  679.7768m 
 -480.57475m   38.2153n  700.0000m   20.3646m  679.6354m 
 -480.47475m   38.3920n  700.0000m   20.5061m  679.4939m 
 -480.37475m   38.5698n  700.0000m   20.6475m  679.3525m 
 -480.27475m   38.7485n  700.0000m   20.7889m  679.2111m 
 -480.17475m   38.9283n  700.0000m   20.9303m  679.0697m 
 -480.07475m   39.1092n  700.0000m   21.0717m  678.9283m 
 -479.97475m   39.2910n  700.0000m   21.2132m  678.7868m 
 -479.87475m   39.4739n  700.0000m   21.3546m  678.6454m 
 -479.77475m   39.6579n  700.0000m   21.4960m  678.5040m 
 -479.67475m   39.8429n  700.0000m   21.6374m  678.3626m 
 -479.57475m   40.0290n  700.0000m   21.7789m  678.2212m 
 -479.47475m   40.2162n  700.0000m   21.9203m  678.0797m 
 -479.37475m   40.4044n  700.0000m   22.0617m  677.9383m 
 -479.27475m   40.5937n  700.0000m   22.2031m  677.7969m 
 -479.17475m   40.7841n  700.0000m   22.3445m  677.6555m 
 -479.07475m   40.9756n  700.0000m   22.4860m  677.5140m 
 -478.97475m   41.1682n  700.0000m   22.6274m  677.3726m 
 -478.87475m   41.3619n  700.0000m   22.7688m  677.2312m 
 -478.77475m   41.5567n  700.0000m   22.9102m  677.0898m 
 -478.67475m   41.7526n  700.0000m   23.0516m  676.9484m 
 -478.57475m   41.9497n  700.0000m   23.1931m  676.8069m 
 -478.47475m   42.1478n  700.0000m   23.3345m  676.6655m 
 -478.37475m   42.3472n  700.0000m   23.4759m  676.5241m 
 -478.27475m   42.5476n  700.0000m   23.6173m  676.3827m 
 -478.17475m   42.7493n  700.0000m   23.7587m  676.2413m 
 -478.07475m   42.9520n  700.0000m   23.9002m  676.0998m 
 -477.97475m   43.1560n  700.0000m   24.0416m  675.9584m 
 -477.87475m   43.3611n  700.0000m   24.1830m  675.8170m 
 -477.77475m   43.5674n  700.0000m   24.3244m  675.6756m 
 -477.67475m   43.7749n  700.0000m   24.4659m  675.5341m 
 -477.57475m   43.9836n  700.0000m   24.6073m  675.3927m 
 -477.47475m   44.1934n  700.0000m   24.7487m  675.2513m 
 -477.37475m   44.4045n  700.0000m   24.8901m  675.1099m 
 -477.27475m   44.6168n  700.0000m   25.0315m  674.9685m 
 -477.17475m   44.8303n  700.0000m   25.1730m  674.8270m 
 -477.07475m   45.0451n  700.0000m   25.3144m  674.6856m 
 -476.97475m   45.2610n  700.0000m   25.4558m  674.5442m 
 -476.87475m   45.4783n  700.0000m   25.5972m  674.4028m 
 -476.77475m   45.6967n  700.0000m   25.7386m  674.2614m 
 -476.67475m   45.9165n  700.0000m   25.8801m  674.1199m 
 -476.57475m   46.1374n  700.0000m   26.0215m  673.9785m 
 -476.47475m   46.3597n  700.0000m   26.1629m  673.8371m 
 -476.37475m   46.5832n  700.0000m   26.3043m  673.6957m 
 -476.27475m   46.8081n  700.0000m   26.4457m  673.5543m 
 -476.17475m   47.0342n  700.0000m   26.5872m  673.4128m 
 -476.07475m   47.2616n  700.0000m   26.7286m  673.2714m 
 -475.97475m   47.4903n  700.0000m   26.8700m  673.1300m 
 -475.87475m   47.7203n  700.0000m   27.0114m  672.9886m 
 -475.77475m   47.9517n  700.0000m   27.1529m  672.8471m 
 -475.67475m   48.1844n  700.0000m   27.2943m  672.7057m 
 -475.57475m   48.4184n  700.0000m   27.4357m  672.5643m 
 -475.47475m   48.6538n  700.0000m   27.5771m  672.4229m 
 -475.37475m   48.8905n  700.0000m   27.7185m  672.2815m 
 -475.27475m   49.1286n  700.0000m   27.8600m  672.1400m 
 -475.17475m   49.3681n  700.0000m   28.0014m  671.9986m 
 -475.07475m   49.6089n  700.0000m   28.1428m  671.8572m 
 -474.97475m   49.8512n  700.0000m   28.2842m  671.7158m 
 -474.87475m   50.0948n  700.0000m   28.4256m  671.5744m 
 -474.77475m   50.3398n  700.0000m   28.5671m  671.4329m 
 -474.67475m   50.5862n  700.0000m   28.7085m  671.2915m 
 -474.57475m   50.8341n  700.0000m   28.8499m  671.1501m 
 -474.47475m   51.0833n  699.9999m   28.9913m  671.0087m 
 -474.37475m   51.3340n  699.9999m   29.1327m  670.8673m 
 -474.27475m   51.5862n  699.9999m   29.2742m  670.7258m 
 -474.17475m   51.8398n  699.9999m   29.4156m  670.5844m 
 -474.07475m   52.0949n  699.9999m   29.5570m  670.4430m 
 -473.97475m   52.3514n  699.9999m   29.6984m  670.3016m 
 -473.87475m   52.6094n  699.9999m   29.8399m  670.1601m 
 -473.77475m   52.8689n  699.9999m   29.9813m  670.0187m 
 -473.67475m   53.1299n  699.9999m   30.1227m  669.8773m 
 -473.57475m   53.3924n  699.9999m   30.2641m  669.7359m 
 -473.47475m   53.6564n  699.9999m   30.4055m  669.5945m 
 -473.37475m   53.9219n  699.9999m   30.5470m  669.4530m 
 -473.27475m   54.1889n  699.9999m   30.6884m  669.3116m 
 -473.17475m   54.4575n  699.9999m   30.8298m  669.1702m 
 -473.07475m   54.7276n  699.9999m   30.9712m  669.0288m 
 -472.97475m   54.9993n  699.9999m   31.1126m  668.8874m 
 -472.87475m   55.2726n  699.9999m   31.2541m  668.7459m 
 -472.77475m   55.5474n  699.9999m   31.3955m  668.6045m 
 -472.67475m   55.8238n  699.9999m   31.5369m  668.4631m 
 -472.57475m   56.1018n  699.9999m   31.6783m  668.3217m 
 -472.47475m   56.3814n  699.9999m   31.8197m  668.1803m 
 -472.37475m   56.6626n  699.9999m   31.9612m  668.0388m 
 -472.27475m   56.9454n  699.9999m   32.1026m  667.8974m 
 -472.17475m   57.2299n  699.9999m   32.2440m  667.7560m 
 -472.07475m   57.5160n  699.9999m   32.3854m  667.6146m 
 -471.97475m   57.8037n  699.9999m   32.5269m  667.4731m 
 -471.87475m   58.0931n  699.9999m   32.6683m  667.3317m 
 -471.77475m   58.3842n  699.9999m   32.8097m  667.1903m 
 -471.67475m   58.6769n  699.9999m   32.9511m  667.0489m 
 -471.57475m   58.9713n  699.9999m   33.0925m  666.9075m 
 -471.47475m   59.2674n  699.9999m   33.2340m  666.7660m 
 -471.37475m   59.5653n  699.9999m   33.3754m  666.6246m 
 -471.27475m   59.8648n  699.9999m   33.5168m  666.4832m 
 -471.17475m   60.1661n  699.9999m   33.6582m  666.3418m 
 -471.07475m   60.4691n  699.9999m   33.7996m  666.2004m 
 -470.97475m   60.7738n  699.9999m   33.9411m  666.0589m 
 -470.87475m   61.0804n  699.9999m   34.0825m  665.9175m 
 -470.77475m   61.3886n  699.9999m   34.2239m  665.7761m 
 -470.67475m   61.6987n  699.9999m   34.3653m  665.6347m 
 -470.57475m   62.0105n  699.9999m   34.5067m  665.4933m 
 -470.47475m   62.3242n  699.9999m   34.6482m  665.3518m 
 -470.37475m   62.6396n  699.9999m   34.7896m  665.2104m 
 -470.27475m   62.9569n  699.9999m   34.9310m  665.0690m 
 -470.17475m   63.2759n  699.9999m   35.0724m  664.9276m 
 -470.07475m   63.5969n  699.9999m   35.2139m  664.7861m 
 -469.97475m   63.9196n  699.9999m   35.3553m  664.6447m 
 -469.87475m   64.2443n  699.9999m   35.4967m  664.5033m 
 -469.77475m   64.5708n  699.9999m   35.6381m  664.3619m 
 -469.67475m   64.8992n  699.9999m   35.7795m  664.2205m 
 -469.57475m   65.2295n  699.9999m   35.9210m  664.0790m 
 -469.47475m   65.5617n  699.9999m   36.0624m  663.9376m 
 -469.37475m   65.8958n  699.9999m   36.2038m  663.7962m 
 -469.27475m   66.2318n  699.9999m   36.3452m  663.6548m 
 -469.17475m   66.5698n  699.9999m   36.4866m  663.5134m 
 -469.07475m   66.9097n  699.9999m   36.6281m  663.3719m 
 -468.97475m   67.2516n  699.9999m   36.7695m  663.2305m 
 -468.87475m   67.5954n  699.9999m   36.9109m  663.0891m 
 -468.77475m   67.9412n  699.9999m   37.0523m  662.9477m 
 -468.67475m   68.2891n  699.9999m   37.1937m  662.8063m 
 -468.57475m   68.6389n  699.9999m   37.3352m  662.6648m 
 -468.47475m   68.9907n  699.9999m   37.4766m  662.5234m 
 -468.37475m   69.3446n  699.9999m   37.6180m  662.3820m 
 -468.27475m   69.7005n  699.9999m   37.7594m  662.2406m 
 -468.17475m   70.0585n  699.9999m   37.9009m  662.0991m 
 -468.07475m   70.4186n  699.9999m   38.0423m  661.9577m 
 -467.97475m   70.7807n  699.9999m   38.1837m  661.8163m 
 -467.87475m   71.1449n  699.9999m   38.3251m  661.6749m 
 -467.77475m   71.5112n  699.9999m   38.4665m  661.5335m 
 -467.67475m   71.8796n  699.9999m   38.6080m  661.3920m 
 -467.57475m   72.2501n  699.9999m   38.7494m  661.2506m 
 -467.47475m   72.6228n  699.9999m   38.8908m  661.1092m 
 -467.37475m   72.9977n  699.9999m   39.0322m  660.9678m 
 -467.27475m   73.3747n  699.9999m   39.1736m  660.8264m 
 -467.17475m   73.7538n  699.9999m   39.3151m  660.6849m 
 -467.07475m   74.1352n  699.9999m   39.4565m  660.5435m 
 -466.97475m   74.5188n  699.9999m   39.5979m  660.4021m 
 -466.87475m   74.9045n  699.9999m   39.7393m  660.2607m 
 -466.77475m   75.2925n  699.9999m   39.8807m  660.1193m 
 -466.67475m   75.6828n  699.9999m   40.0222m  659.9778m 
 -466.57475m   76.0753n  699.9999m   40.1636m  659.8364m 
 -466.47475m   76.4700n  699.9999m   40.3050m  659.6950m 
 -466.37475m   76.8671n  699.9999m   40.4464m  659.5536m 
 -466.27475m   77.2664n  699.9999m   40.5879m  659.4121m 
 -466.17475m   77.6680n  699.9999m   40.7293m  659.2707m 
 -466.07475m   78.0720n  699.9999m   40.8707m  659.1293m 
 -465.97475m   78.4783n  699.9999m   41.0121m  658.9879m 
 -465.87475m   78.8869n  699.9999m   41.1535m  658.8465m 
 -465.77475m   79.2979n  699.9999m   41.2950m  658.7050m 
 -465.67475m   79.7113n  699.9999m   41.4364m  658.5636m 
 -465.57475m   80.1270n  699.9999m   41.5778m  658.4222m 
 -465.47475m   80.5452n  699.9999m   41.7192m  658.2808m 
 -465.37475m   80.9657n  699.9999m   41.8606m  658.1394m 
 -465.27475m   81.3887n  699.9999m   42.0021m  657.9979m 
 -465.17475m   81.8142n  699.9999m   42.1435m  657.8565m 
 -465.07475m   82.2421n  699.9999m   42.2849m  657.7151m 
 -464.97475m   82.6725n  699.9999m   42.4263m  657.5737m 
 -464.87475m   83.1053n  699.9999m   42.5677m  657.4323m 
 -464.77475m   83.5407n  699.9999m   42.7092m  657.2908m 
 -464.67475m   83.9785n  699.9999m   42.8506m  657.1494m 
 -464.57475m   84.4189n  699.9999m   42.9920m  657.0080m 
 -464.47475m   84.8619n  699.9999m   43.1334m  656.8666m 
 -464.37475m   85.3074n  699.9999m   43.2748m  656.7252m 
 -464.27475m   85.7555n  699.9999m   43.4163m  656.5837m 
 -464.17475m   86.2062n  699.9999m   43.5577m  656.4423m 
 -464.07475m   86.6594n  699.9999m   43.6991m  656.3009m 
 -463.97475m   87.1153n  699.9999m   43.8405m  656.1595m 
 -463.87475m   87.5739n  699.9999m   43.9820m  656.0180m 
 -463.77475m   88.0350n  699.9999m   44.1234m  655.8766m 
 -463.67475m   88.4989n  699.9999m   44.2648m  655.7352m 
 -463.57475m   88.9654n  699.9999m   44.4062m  655.5938m 
 -463.47475m   89.4346n  699.9999m   44.5476m  655.4524m 
 -463.37475m   89.9066n  699.9999m   44.6891m  655.3109m 
 -463.27475m   90.3812n  699.9999m   44.8305m  655.1695m 
 -463.17475m   90.8586n  699.9999m   44.9719m  655.0281m 
 -463.07475m   91.3388n  699.9999m   45.1133m  654.8867m 
 -462.97475m   91.8218n  699.9999m   45.2547m  654.7453m 
 -462.87475m   92.3075n  699.9999m   45.3962m  654.6038m 
 -462.77475m   92.7960n  699.9999m   45.5376m  654.4624m 
 -462.67475m   93.2874n  699.9999m   45.6790m  654.3210m 
 -462.57475m   93.7816n  699.9999m   45.8204m  654.1796m 
 -462.47475m   94.2787n  699.9999m   45.9618m  654.0382m 
 -462.37475m   94.7786n  699.9999m   46.1033m  653.8967m 
 -462.27475m   95.2815n  699.9999m   46.2447m  653.7553m 
 -462.17475m   95.7872n  699.9999m   46.3861m  653.6139m 
 -462.07475m   96.2959n  699.9999m   46.5275m  653.4725m 
 -461.97475m   96.8075n  699.9999m   46.6690m  653.3310m 
 -461.87475m   97.3221n  699.9999m   46.8104m  653.1896m 
 -461.77475m   97.8396n  699.9999m   46.9518m  653.0482m 
 -461.67475m   98.3602n  699.9999m   47.0932m  652.9068m 
 -461.57475m   98.8837n  699.9999m   47.2346m  652.7654m 
 -461.47475m   99.4103n  699.9999m   47.3761m  652.6239m 
 -461.37475m   99.9399n  699.9999m   47.5175m  652.4825m 
 -461.27475m  100.4726n  699.9999m   47.6589m  652.3411m 
 -461.17475m  101.0084n  699.9999m   47.8003m  652.1997m 
 -461.07475m  101.5473n  699.9999m   47.9417m  652.0583m 
 -460.97475m  102.0893n  699.9999m   48.0832m  651.9168m 
 -460.87475m  102.6344n  699.9999m   48.2246m  651.7754m 
 -460.77475m  103.1827n  699.9999m   48.3660m  651.6340m 
 -460.67475m  103.7342n  699.9999m   48.5074m  651.4926m 
 -460.57475m  104.2888n  699.9999m   48.6488m  651.3512m 
 -460.47475m  104.8467n  699.9999m   48.7903m  651.2097m 
 -460.37475m  105.4078n  699.9999m   48.9317m  651.0683m 
 -460.27475m  105.9722n  699.9999m   49.0731m  650.9269m 
 -460.17475m  106.5398n  699.9999m   49.2145m  650.7855m 
 -460.07475m  107.1107n  699.9999m   49.3559m  650.6441m 
 -459.97475m  107.6849n  699.9999m   49.4974m  650.5026m 
 -459.87475m  108.2624n  699.9999m   49.6388m  650.3612m 
 -459.77475m  108.8433n  699.9999m   49.7802m  650.2198m 
 -459.67475m  109.4275n  699.9999m   49.9216m  650.0784m 
 -459.57475m  110.0151n  699.9999m   50.0630m  649.9369m 
 -459.47475m  110.6062n  699.9999m   50.2045m  649.7955m 
 -459.37475m  111.2006n  699.9999m   50.3459m  649.6541m 
 -459.27475m  111.7985n  699.9999m   50.4873m  649.5127m 
 -459.17475m  112.3999n  699.9999m   50.6287m  649.3713m 
 -459.07475m  113.0047n  699.9999m   50.7702m  649.2298m 
 -458.97475m  113.6130n  699.9999m   50.9116m  649.0884m 
 -458.87475m  114.2249n  699.9999m   51.0530m  648.9470m 
 -458.77475m  114.8403n  699.9999m   51.1944m  648.8056m 
 -458.67475m  115.4593n  699.9999m   51.3358m  648.6642m 
 -458.57475m  116.0818n  699.9999m   51.4773m  648.5227m 
 -458.47475m  116.7080n  699.9999m   51.6187m  648.3813m 
 -458.37475m  117.3378n  699.9999m   51.7601m  648.2399m 
 -458.27475m  117.9713n  699.9999m   51.9015m  648.0985m 
 -458.17475m  118.6084n  699.9999m   52.0429m  647.9571m 
 -458.07475m  119.2492n  699.9999m   52.1844m  647.8156m 
 -457.97475m  119.8937n  699.9999m   52.3258m  647.6742m 
 -457.87475m  120.5420n  699.9999m   52.4672m  647.5328m 
 -457.77475m  121.1940n  699.9999m   52.6086m  647.3914m 
 -457.67475m  121.8498n  699.9999m   52.7500m  647.2500m 
 -457.57475m  122.5094n  699.9999m   52.8915m  647.1085m 
 -457.47475m  123.1728n  699.9999m   53.0329m  646.9671m 
 -457.37475m  123.8401n  699.9999m   53.1743m  646.8257m 
 -457.27475m  124.5113n  699.9999m   53.3157m  646.6843m 
 -457.17475m  125.1863n  699.9999m   53.4571m  646.5429m 
 -457.07475m  125.8652n  699.9999m   53.5986m  646.4014m 
 -456.97475m  126.5481n  699.9999m   53.7400m  646.2600m 
 -456.87475m  127.2350n  699.9999m   53.8814m  646.1186m 
 -456.77475m  127.9258n  699.9999m   54.0228m  645.9772m 
 -456.67475m  128.6206n  699.9999m   54.1643m  645.8357m 
 -456.57475m  129.3195n  699.9999m   54.3057m  645.6943m 
 -456.47475m  130.0224n  699.9999m   54.4471m  645.5529m 
 -456.37475m  130.7294n  699.9999m   54.5885m  645.4115m 
 -456.27475m  131.4405n  699.9999m   54.7299m  645.2701m 
 -456.17475m  132.1557n  699.9999m   54.8714m  645.1286m 
 -456.07475m  132.8751n  699.9999m   55.0128m  644.9872m 
 -455.97475m  133.5986n  699.9999m   55.1542m  644.8458m 
 -455.87475m  134.3264n  699.9999m   55.2956m  644.7044m 
 -455.77475m  135.0584n  699.9999m   55.4370m  644.5630m 
 -455.67475m  135.7946n  699.9999m   55.5785m  644.4215m 
 -455.57475m  136.5351n  699.9999m   55.7199m  644.2801m 
 -455.47475m  137.2798n  699.9999m   55.8613m  644.1387m 
 -455.37475m  138.0289n  699.9999m   56.0027m  643.9973m 
 -455.27475m  138.7824n  699.9999m   56.1441m  643.8559m 
 -455.17475m  139.5402n  699.9999m   56.2856m  643.7144m 
 -455.07475m  140.3024n  699.9999m   56.4270m  643.5730m 
 -454.97475m  141.0691n  699.9999m   56.5684m  643.4316m 
 -454.87475m  141.8402n  699.9999m   56.7098m  643.2902m 
 -454.77475m  142.6158n  699.9999m   56.8512m  643.1488m 
 -454.67475m  143.3959n  699.9999m   56.9927m  643.0073m 
 -454.57475m  144.1805n  699.9999m   57.1341m  642.8659m 
 -454.47475m  144.9696n  699.9999m   57.2755m  642.7245m 
 -454.37475m  145.7634n  699.9999m   57.4169m  642.5831m 
 -454.27475m  146.5617n  699.9999m   57.5583m  642.4417m 
 -454.17475m  147.3647n  699.9999m   57.6998m  642.3002m 
 -454.07475m  148.1724n  699.9999m   57.8412m  642.1588m 
 -453.97475m  148.9847n  699.9999m   57.9826m  642.0174m 
 -453.87475m  149.8018n  699.9998m   58.1240m  641.8760m 
 -453.77475m  150.6236n  699.9998m   58.2654m  641.7346m 
 -453.67475m  151.4502n  699.9998m   58.4069m  641.5931m 
 -453.57475m  152.2816n  699.9998m   58.5483m  641.4517m 
 -453.47475m  153.1178n  699.9998m   58.6897m  641.3103m 
 -453.37475m  153.9589n  699.9998m   58.8311m  641.1689m 
 -453.27475m  154.8049n  699.9998m   58.9725m  641.0274m 
 -453.17475m  155.6557n  699.9998m   59.1140m  640.8860m 
 -453.07475m  156.5116n  699.9998m   59.2554m  640.7446m 
 -452.97475m  157.3724n  699.9998m   59.3968m  640.6032m 
 -452.87475m  158.2382n  699.9998m   59.5382m  640.4618m 
 -452.77475m  159.1090n  699.9998m   59.6797m  640.3203m 
 -452.67475m  159.9849n  699.9998m   59.8211m  640.1789m 
 -452.57475m  160.8659n  699.9998m   59.9625m  640.0375m 
 -452.47475m  161.7520n  699.9998m   60.1039m  639.8961m 
 -452.37475m  162.6432n  699.9998m   60.2453m  639.7547m 
 -452.27475m  163.5397n  699.9998m   60.3868m  639.6132m 
 -452.17475m  164.4413n  699.9998m   60.5282m  639.4718m 
 -452.07475m  165.3482n  699.9998m   60.6696m  639.3304m 
 -451.97475m  166.2604n  699.9998m   60.8110m  639.1890m 
 -451.87475m  167.1779n  699.9998m   60.9524m  639.0476m 
 -451.77475m  168.1007n  699.9998m   61.0939m  638.9061m 
 -451.67475m  169.0288n  699.9998m   61.2353m  638.7647m 
 -451.57475m  169.9624n  699.9998m   61.3767m  638.6233m 
 -451.47475m  170.9014n  699.9998m   61.5181m  638.4819m 
 -451.37475m  171.8458n  699.9998m   61.6595m  638.3405m 
 -451.27475m  172.7958n  699.9998m   61.8010m  638.1990m 
 -451.17475m  173.7513n  699.9998m   61.9424m  638.0576m 
 -451.07475m  174.7123n  699.9998m   62.0838m  637.9162m 
 -450.97475m  175.6789n  699.9998m   62.2252m  637.7748m 
 -450.87475m  176.6512n  699.9998m   62.3666m  637.6334m 
 -450.77475m  177.6291n  699.9998m   62.5081m  637.4919m 
 -450.67475m  178.6127n  699.9998m   62.6495m  637.3505m 
 -450.57475m  179.6020n  699.9998m   62.7909m  637.2091m 
 -450.47475m  180.5971n  699.9998m   62.9323m  637.0677m 
 -450.37475m  181.5979n  699.9998m   63.0737m  636.9263m 
 -450.27475m  182.6046n  699.9998m   63.2152m  636.7848m 
 -450.17475m  183.6172n  699.9998m   63.3566m  636.6434m 
 -450.07475m  184.6356n  699.9998m   63.4980m  636.5020m 
 -449.97475m  185.6600n  699.9998m   63.6394m  636.3606m 
 -449.87475m  186.6903n  699.9998m   63.7808m  636.2192m 
 -449.77475m  187.7267n  699.9998m   63.9223m  636.0777m 
 -449.67475m  188.7690n  699.9998m   64.0637m  635.9363m 
 -449.57475m  189.8175n  699.9998m   64.2051m  635.7949m 
 -449.47475m  190.8720n  699.9998m   64.3465m  635.6535m 
 -449.37475m  191.9327n  699.9998m   64.4879m  635.5121m 
 -449.27475m  192.9995n  699.9998m   64.6294m  635.3706m 
 -449.17475m  194.0726n  699.9998m   64.7708m  635.2292m 
 -449.07475m  195.1519n  699.9998m   64.9122m  635.0878m 
 -448.97475m  196.2375n  699.9998m   65.0536m  634.9464m 
 -448.87475m  197.3295n  699.9998m   65.1950m  634.8050m 
 -448.77475m  198.4277n  699.9998m   65.3365m  634.6635m 
 -448.67475m  199.5324n  699.9998m   65.4779m  634.5221m 
 -448.57475m  200.6435n  699.9998m   65.6193m  634.3807m 
 -448.47475m  201.7611n  699.9998m   65.7607m  634.2393m 
 -448.37475m  202.8852n  699.9998m   65.9021m  634.0979m 
 -448.27475m  204.0159n  699.9998m   66.0436m  633.9564m 
 -448.17475m  205.1531n  699.9998m   66.1850m  633.8150m 
 -448.07475m  206.2970n  699.9998m   66.3264m  633.6736m 
 -447.97475m  207.4475n  699.9998m   66.4678m  633.5322m 
 -447.87475m  208.6048n  699.9998m   66.6092m  633.3907m 
 -447.77475m  209.7687n  699.9998m   66.7507m  633.2493m 
 -447.67475m  210.9395n  699.9998m   66.8921m  633.1079m 
 -447.57475m  212.1171n  699.9998m   67.0335m  632.9665m 
 -447.47475m  213.3015n  699.9998m   67.1749m  632.8251m 
 -447.37475m  214.4929n  699.9998m   67.3163m  632.6836m 
 -447.27475m  215.6912n  699.9998m   67.4578m  632.5422m 
 -447.17475m  216.8965n  699.9998m   67.5992m  632.4008m 
 -447.07475m  218.1088n  699.9998m   67.7406m  632.2594m 
 -446.97475m  219.3282n  699.9998m   67.8820m  632.1180m 
 -446.87475m  220.5547n  699.9998m   68.0235m  631.9765m 
 -446.77475m  221.7883n  699.9998m   68.1649m  631.8351m 
 -446.67475m  223.0291n  699.9998m   68.3063m  631.6937m 
 -446.57475m  224.2772n  699.9998m   68.4477m  631.5523m 
 -446.47475m  225.5326n  699.9998m   68.5891m  631.4109m 
 -446.37475m  226.7953n  699.9998m   68.7306m  631.2694m 
 -446.27475m  228.0653n  699.9998m   68.8720m  631.1280m 
 -446.17475m  229.3427n  699.9998m   69.0134m  630.9866m 
 -446.07475m  230.6276n  699.9998m   69.1548m  630.8452m 
 -445.97475m  231.9200n  699.9998m   69.2962m  630.7038m 
 -445.87475m  233.2200n  699.9998m   69.4377m  630.5623m 
 -445.77475m  234.5275n  699.9998m   69.5791m  630.4209m 
 -445.67475m  235.8426n  699.9998m   69.7205m  630.2795m 
 -445.57475m  237.1655n  699.9998m   69.8619m  630.1381m 
 -445.47475m  238.4960n  699.9998m   70.0033m  629.9967m 
 -445.37475m  239.8343n  699.9998m   70.1448m  629.8552m 
 -445.27475m  241.1804n  699.9998m   70.2862m  629.7138m 
 -445.17475m  242.5344n  699.9998m   70.4276m  629.5724m 
 -445.07475m  243.8963n  699.9998m   70.5690m  629.4310m 
 -444.97475m  245.2661n  699.9998m   70.7104m  629.2896m 
 -444.87475m  246.6440n  699.9998m   70.8519m  629.1481m 
 -444.77475m  248.0298n  699.9998m   70.9933m  629.0067m 
 -444.67475m  249.4238n  699.9997m   71.1347m  628.8653m 
 -444.57475m  250.8259n  699.9997m   71.2761m  628.7239m 
 -444.47475m  252.2362n  699.9997m   71.4175m  628.5825m 
 -444.37475m  253.6547n  699.9997m   71.5590m  628.4410m 
 -444.27475m  255.0815n  699.9997m   71.7004m  628.2996m 
 -444.17475m  256.5166n  699.9997m   71.8418m  628.1582m 
 -444.07475m  257.9602n  699.9997m   71.9832m  628.0168m 
 -443.97475m  259.4121n  699.9997m   72.1246m  627.8754m 
 -443.87475m  260.8725n  699.9997m   72.2661m  627.7339m 
 -443.77475m  262.3415n  699.9997m   72.4075m  627.5925m 
 -443.67475m  263.8190n  699.9997m   72.5489m  627.4511m 
 -443.57475m  265.3052n  699.9997m   72.6903m  627.3097m 
 -443.47475m  266.8001n  699.9997m   72.8317m  627.1683m 
 -443.37475m  268.3037n  699.9997m   72.9732m  627.0268m 
 -443.27475m  269.8160n  699.9997m   73.1146m  626.8854m 
 -443.17475m  271.3373n  699.9997m   73.2560m  626.7440m 
 -443.07475m  272.8674n  699.9997m   73.3974m  626.6026m 
 -442.97475m  274.4064n  699.9997m   73.5388m  626.4612m 
 -442.87475m  275.9545n  699.9997m   73.6802m  626.3197m 
 -442.77475m  277.5115n  699.9997m   73.8217m  626.1783m 
 -442.67475m  279.0777n  699.9997m   73.9631m  626.0369m 
 -442.57475m  280.6531n  699.9997m   74.1045m  625.8955m 
 -442.47475m  282.2376n  699.9997m   74.2459m  625.7541m 
 -442.37475m  283.8315n  699.9997m   74.3873m  625.6127m 
 -442.27475m  285.4346n  699.9997m   74.5288m  625.4712m 
 -442.17475m  287.0471n  699.9997m   74.6702m  625.3298m 
 -442.07475m  288.6691n  699.9997m   74.8116m  625.1884m 
 -441.97475m  290.3005n  699.9997m   74.9530m  625.0470m 
 -441.87475m  291.9414n  699.9997m   75.0944m  624.9056m 
 -441.77475m  293.5920n  699.9997m   75.2359m  624.7641m 
 -441.67475m  295.2522n  699.9997m   75.3773m  624.6227m 
 -441.57475m  296.9222n  699.9997m   75.5187m  624.4813m 
 -441.47475m  298.6018n  699.9997m   75.6601m  624.3399m 
 -441.37475m  300.2914n  699.9997m   75.8015m  624.1985m 
 -441.27475m  301.9908n  699.9997m   75.9430m  624.0570m 
 -441.17475m  303.7001n  699.9997m   76.0844m  623.9156m 
 -441.07475m  305.4195n  699.9997m   76.2258m  623.7742m 
 -440.97475m  307.1489n  699.9997m   76.3672m  623.6328m 
 -440.87475m  308.8884n  699.9997m   76.5086m  623.4914m 
 -440.77475m  310.6381n  699.9997m   76.6501m  623.3499m 
 -440.67475m  312.3981n  699.9997m   76.7915m  623.2085m 
 -440.57475m  314.1683n  699.9997m   76.9329m  623.0671m 
 -440.47475m  315.9489n  699.9997m   77.0743m  622.9257m 
 -440.37475m  317.7399n  699.9997m   77.2157m  622.7843m 
 -440.27475m  319.5415n  699.9997m   77.3572m  622.6428m 
 -440.17475m  321.3535n  699.9997m   77.4986m  622.5014m 
 -440.07475m  323.1762n  699.9997m   77.6400m  622.3600m 
 -439.97475m  325.0095n  699.9997m   77.7814m  622.2186m 
 -439.87475m  326.8536n  699.9997m   77.9228m  622.0772m 
 -439.77475m  328.7085n  699.9997m   78.0643m  621.9357m 
 -439.67475m  330.5742n  699.9997m   78.2057m  621.7943m 
 -439.57475m  332.4509n  699.9997m   78.3471m  621.6529m 
 -439.47475m  334.3385n  699.9997m   78.4885m  621.5115m 
 -439.37475m  336.2372n  699.9997m   78.6299m  621.3701m 
 -439.27475m  338.1471n  699.9997m   78.7714m  621.2286m 
 -439.17475m  340.0681n  699.9997m   78.9128m  621.0872m 
 -439.07475m  342.0004n  699.9997m   79.0542m  620.9458m 
 -438.97475m  343.9440n  699.9997m   79.1956m  620.8044m 
 -438.87475m  345.8989n  699.9997m   79.3370m  620.6630m 
 -438.77475m  347.8654n  699.9997m   79.4785m  620.5215m 
 -438.67475m  349.8433n  699.9996m   79.6199m  620.3801m 
 -438.57475m  351.8329n  699.9996m   79.7613m  620.2387m 
 -438.47475m  353.8341n  699.9996m   79.9027m  620.0973m 
 -438.37475m  355.8470n  699.9996m   80.0441m  619.9559m 
 -438.27475m  357.8717n  699.9996m   80.1856m  619.8144m 
 -438.17475m  359.9083n  699.9996m   80.3270m  619.6730m 
 -438.07475m  361.9568n  699.9996m   80.4684m  619.5316m 
 -437.97475m  364.0174n  699.9996m   80.6098m  619.3902m 
 -437.87475m  366.0900n  699.9996m   80.7512m  619.2488m 
 -437.77475m  368.1748n  699.9996m   80.8926m  619.1074m 
 -437.67475m  370.2718n  699.9996m   81.0341m  618.9659m 
 -437.57475m  372.3811n  699.9996m   81.1755m  618.8245m 
 -437.47475m  374.5027n  699.9996m   81.3169m  618.6831m 
 -437.37475m  376.6368n  699.9996m   81.4583m  618.5417m 
 -437.27475m  378.7835n  699.9996m   81.5997m  618.4003m 
 -437.17475m  380.9427n  699.9996m   81.7412m  618.2588m 
 -437.07475m  383.1145n  699.9996m   81.8826m  618.1174m 
 -436.97475m  385.2991n  699.9996m   82.0240m  617.9760m 
 -436.87475m  387.4966n  699.9996m   82.1654m  617.8346m 
 -436.77475m  389.7069n  699.9996m   82.3068m  617.6932m 
 -436.67475m  391.9302n  699.9996m   82.4483m  617.5517m 
 -436.57475m  394.1665n  699.9996m   82.5897m  617.4103m 
 -436.47475m  396.4159n  699.9996m   82.7311m  617.2689m 
 -436.37475m  398.6786n  699.9996m   82.8725m  617.1275m 
 -436.27475m  400.9545n  699.9996m   83.0139m  616.9861m 
 -436.17475m  403.2438n  699.9996m   83.1554m  616.8446m 
 -436.07475m  405.5465n  699.9996m   83.2968m  616.7032m 
 -435.97475m  407.8628n  699.9996m   83.4382m  616.5618m 
 -435.87475m  410.1926n  699.9996m   83.5796m  616.4204m 
 -435.77475m  412.5361n  699.9996m   83.7210m  616.2790m 
 -435.67475m  414.8934n  699.9996m   83.8624m  616.1376m 
 -435.57475m  417.2645n  699.9996m   84.0039m  615.9961m 
 -435.47475m  419.6495n  699.9996m   84.1453m  615.8547m 
 -435.37475m  422.0485n  699.9996m   84.2867m  615.7133m 
 -435.27475m  424.4616n  699.9996m   84.4281m  615.5719m 
 -435.17475m  426.8889n  699.9996m   84.5695m  615.4305m 
 -435.07475m  429.3305n  699.9996m   84.7110m  615.2890m 
 -434.97475m  431.7863n  699.9996m   84.8524m  615.1476m 
 -434.87475m  434.2567n  699.9996m   84.9938m  615.0062m 
 -434.77475m  436.7415n  699.9996m   85.1352m  614.8648m 
 -434.67475m  439.2409n  699.9996m   85.2766m  614.7234m 
 -434.57475m  441.7550n  699.9996m   85.4181m  614.5819m 
 -434.47475m  444.2838n  699.9996m   85.5595m  614.4405m 
 -434.37475m  446.8276n  699.9996m   85.7009m  614.2991m 
 -434.27475m  449.3862n  699.9996m   85.8423m  614.1577m 
 -434.17475m  451.9599n  699.9995m   85.9837m  614.0163m 
 -434.07475m  454.5488n  699.9995m   86.1252m  613.8748m 
 -433.97475m  457.1528n  699.9995m   86.2666m  613.7334m 
 -433.87475m  459.7721n  699.9995m   86.4080m  613.5920m 
 -433.77475m  462.4069n  699.9995m   86.5494m  613.4506m 
 -433.67475m  465.0571n  699.9995m   86.6908m  613.3092m 
 -433.57475m  467.7229n  699.9995m   86.8322m  613.1678m 
 -433.47475m  470.4044n  699.9995m   86.9737m  613.0263m 
 -433.37475m  473.1017n  699.9995m   87.1151m  612.8849m 
 -433.27475m  475.8148n  699.9995m   87.2565m  612.7435m 
 -433.17475m  478.5438n  699.9995m   87.3979m  612.6021m 
 -433.07475m  481.2889n  699.9995m   87.5393m  612.4607m 
 -432.97475m  484.0502n  699.9995m   87.6808m  612.3192m 
 -432.87475m  486.8276n  699.9995m   87.8222m  612.1778m 
 -432.77475m  489.6215n  699.9995m   87.9636m  612.0364m 
 -432.67475m  492.4317n  699.9995m   88.1050m  611.8950m 
 -432.57475m  495.2585n  699.9995m   88.2464m  611.7536m 
 -432.47475m  498.1019n  699.9995m   88.3879m  611.6122m 
 -432.37475m  500.9621n  699.9995m   88.5293m  611.4707m 
 -432.27475m  503.8390n  699.9995m   88.6707m  611.3293m 
 -432.17475m  506.7329n  699.9995m   88.8121m  611.1879m 
 -432.07475m  509.6438n  699.9995m   88.9535m  611.0465m 
 -431.97475m  512.5719n  699.9995m   89.0949m  610.9051m 
 -431.87475m  515.5172n  699.9995m   89.2364m  610.7636m 
 -431.77475m  518.4798n  699.9995m   89.3778m  610.6222m 
 -431.67475m  521.4599n  699.9995m   89.5192m  610.4808m 
 -431.57475m  524.4574n  699.9995m   89.6606m  610.3394m 
 -431.47475m  527.4727n  699.9995m   89.8020m  610.1980m 
 -431.37475m  530.5057n  699.9995m   89.9435m  610.0565m 
 -431.27475m  533.5565n  699.9995m   90.0849m  609.9151m 
 -431.17475m  536.6253n  699.9995m   90.2263m  609.7737m 
 -431.07475m  539.7122n  699.9995m   90.3677m  609.6323m 
 -430.97475m  542.8173n  699.9995m   90.5091m  609.4909m 
 -430.87475m  545.9406n  699.9995m   90.6505m  609.3495m 
 -430.77475m  549.0823n  699.9995m   90.7920m  609.2080m 
 -430.67475m  552.2426n  699.9995m   90.9334m  609.0666m 
 -430.57475m  555.4214n  699.9994m   91.0748m  608.9252m 
 -430.47475m  558.6190n  699.9994m   91.2162m  608.7838m 
 -430.37475m  561.8354n  699.9994m   91.3576m  608.6424m 
 -430.27475m  565.0708n  699.9994m   91.4991m  608.5009m 
 -430.17475m  568.3252n  699.9994m   91.6405m  608.3595m 
 -430.07475m  571.5988n  699.9994m   91.7819m  608.2181m 
 -429.97475m  574.8917n  699.9994m   91.9233m  608.0767m 
 -429.87475m  578.2039n  699.9994m   92.0647m  607.9353m 
 -429.77475m  581.5358n  699.9994m   92.2061m  607.7939m 
 -429.67475m  584.8872n  699.9994m   92.3476m  607.6524m 
 -429.57475m  588.2584n  699.9994m   92.4890m  607.5110m 
 -429.47475m  591.6495n  699.9994m   92.6304m  607.3696m 
 -429.37475m  595.0605n  699.9994m   92.7718m  607.2282m 
 -429.27475m  598.4917n  699.9994m   92.9132m  607.0868m 
 -429.17475m  601.9431n  699.9994m   93.0547m  606.9453m 
 -429.07475m  605.4148n  699.9994m   93.1961m  606.8039m 
 -428.97475m  608.9070n  699.9994m   93.3375m  606.6625m 
 -428.87475m  612.4198n  699.9994m   93.4789m  606.5211m 
 -428.77475m  615.9533n  699.9994m   93.6203m  606.3797m 
 -428.67475m  619.5077n  699.9994m   93.7617m  606.2383m 
 -428.57475m  623.0830n  699.9994m   93.9032m  606.0968m 
 -428.47475m  626.6794n  699.9994m   94.0446m  605.9554m 
 -428.37475m  630.2970n  699.9994m   94.1860m  605.8140m 
 -428.27475m  633.9360n  699.9994m   94.3274m  605.6726m 
 -428.17475m  637.5964n  699.9994m   94.4688m  605.5312m 
 -428.07475m  641.2784n  699.9994m   94.6103m  605.3898m 
 -427.97475m  644.9822n  699.9994m   94.7517m  605.2483m 
 -427.87475m  648.7078n  699.9994m   94.8931m  605.1069m 
 -427.77475m  652.4554n  699.9994m   95.0345m  604.9655m 
 -427.67475m  656.2251n  699.9993m   95.1759m  604.8241m 
 -427.57475m  660.0170n  699.9993m   95.3173m  604.6827m 
 -427.47475m  663.8313n  699.9993m   95.4588m  604.5412m 
 -427.37475m  667.6682n  699.9993m   95.6002m  604.3998m 
 -427.27475m  671.5277n  699.9993m   95.7416m  604.2584m 
 -427.17475m  675.4100n  699.9993m   95.8830m  604.1170m 
 -427.07475m  679.3152n  699.9993m   96.0244m  603.9756m 
 -426.97475m  683.2434n  699.9993m   96.1658m  603.8342m 
 -426.87475m  687.1949n  699.9993m   96.3073m  603.6927m 
 -426.77475m  691.1696n  699.9993m   96.4487m  603.5513m 
 -426.67475m  695.1679n  699.9993m   96.5901m  603.4099m 
 -426.57475m  699.1898n  699.9993m   96.7315m  603.2685m 
 -426.47475m  703.2354n  699.9993m   96.8729m  603.1271m 
 -426.37475m  707.3049n  699.9993m   97.0143m  602.9857m 
 -426.27475m  711.3985n  699.9993m   97.1558m  602.8442m 
 -426.17475m  715.5162n  699.9993m   97.2972m  602.7028m 
 -426.07475m  719.6583n  699.9993m   97.4386m  602.5614m 
 -425.97475m  723.8248n  699.9993m   97.5800m  602.4200m 
 -425.87475m  728.0160n  699.9993m   97.7214m  602.2786m 
 -425.77475m  732.2319n  699.9993m   97.8629m  602.1372m 
 -425.67475m  736.4727n  699.9993m   98.0043m  601.9957m 
 -425.57475m  740.7386n  699.9993m   98.1457m  601.8543m 
 -425.47475m  745.0297n  699.9993m   98.2871m  601.7129m 
 -425.37475m  749.3462n  699.9993m   98.4285m  601.5715m 
 -425.27475m  753.6882n  699.9993m   98.5699m  601.4301m 
 -425.17475m  758.0558n  699.9992m   98.7114m  601.2887m 
 -425.07475m  762.4493n  699.9992m   98.8528m  601.1472m 
 -424.97475m  766.8688n  699.9992m   98.9942m  601.0058m 
 -424.87475m  771.3144n  699.9992m   99.1356m  600.8644m 
 -424.77475m  775.7862n  699.9992m   99.2770m  600.7230m 
 -424.67475m  780.2845n  699.9992m   99.4184m  600.5816m 
 -424.57475m  784.8095n  699.9992m   99.5599m  600.4402m 
 -424.47475m  789.3611n  699.9992m   99.7013m  600.2987m 
 -424.37475m  793.9397n  699.9992m   99.8427m  600.1573m 
 -424.27475m  798.5454n  699.9992m   99.9841m  600.0159m 
 -424.17475m  803.1783n  699.9992m  100.1255m  599.8745m 
 -424.07475m  807.8387n  699.9992m  100.2669m  599.7331m 
 -423.97475m  812.5266n  699.9992m  100.4084m  599.5916m 
 -423.87475m  817.2422n  699.9992m  100.5498m  599.4502m 
 -423.77475m  821.9858n  699.9992m  100.6912m  599.3088m 
 -423.67475m  826.7574n  699.9992m  100.8326m  599.1674m 
 -423.57475m  831.5573n  699.9992m  100.9740m  599.0260m 
 -423.47475m  836.3855n  699.9992m  101.1154m  598.8846m 
 -423.37475m  841.2424n  699.9992m  101.2569m  598.7432m 
 -423.27475m  846.1280n  699.9992m  101.3983m  598.6017m 
 -423.17475m  851.0425n  699.9992m  101.5397m  598.4603m 
 -423.07475m  855.9861n  699.9992m  101.6811m  598.3189m 
 -422.97475m  860.9590n  699.9991m  101.8225m  598.1775m 
 -422.87475m  865.9613n  699.9991m  101.9639m  598.0361m 
 -422.77475m  870.9932n  699.9991m  102.1054m  597.8947m 
 -422.67475m  876.0549n  699.9991m  102.2468m  597.7532m 
 -422.57475m  881.1467n  699.9991m  102.3882m  597.6118m 
 -422.47475m  886.2685n  699.9991m  102.5296m  597.4704m 
 -422.37475m  891.4207n  699.9991m  102.6710m  597.3290m 
 -422.27475m  896.6035n  699.9991m  102.8124m  597.1876m 
 -422.17475m  901.8169n  699.9991m  102.9539m  597.0462m 
 -422.07475m  907.0612n  699.9991m  103.0953m  596.9047m 
 -421.97475m  912.3366n  699.9991m  103.2367m  596.7633m 
 -421.87475m  917.6432n  699.9991m  103.3781m  596.6219m 
 -421.77475m  922.9813n  699.9991m  103.5195m  596.4805m 
 -421.67475m  928.3510n  699.9991m  103.6609m  596.3391m 
 -421.57475m  933.7526n  699.9991m  103.8024m  596.1977m 
 -421.47475m  939.1861n  699.9991m  103.9438m  596.0562m 
 -421.37475m  944.6519n  699.9991m  104.0852m  595.9148m 
 -421.27475m  950.1500n  699.9991m  104.2266m  595.7734m 
 -421.17475m  955.6808n  699.9991m  104.3680m  595.6320m 
 -421.07475m  961.2443n  699.9991m  104.5094m  595.4906m 
 -420.97475m  966.8408n  699.9990m  104.6509m  595.3492m 
 -420.87475m  972.4706n  699.9990m  104.7923m  595.2077m 
 -420.77475m  978.1336n  699.9990m  104.9337m  595.0663m 
 -420.67475m  983.8303n  699.9990m  105.0751m  594.9249m 
 -420.57475m  989.5608n  699.9990m  105.2165m  594.7835m 
 -420.47475m  995.3252n  699.9990m  105.3579m  594.6421m 
 -420.37475m    1.0011u  699.9990m  105.4993m  594.5007m 
 -420.27475m    1.0070u  699.9990m  105.6408m  594.3593m 
 -420.17475m    1.0128u  699.9990m  105.7822m  594.2178m 
 -420.07475m    1.0187u  699.9990m  105.9236m  594.0764m 
 -419.97475m    1.0247u  699.9990m  106.0650m  593.9350m 
 -419.87475m    1.0306u  699.9990m  106.2064m  593.7936m 
 -419.77475m    1.0366u  699.9990m  106.3478m  593.6522m 
 -419.67475m    1.0427u  699.9990m  106.4893m  593.5108m 
 -419.57475m    1.0488u  699.9990m  106.6307m  593.3693m 
 -419.47475m    1.0549u  699.9990m  106.7721m  593.2279m 
 -419.37475m    1.0610u  699.9990m  106.9135m  593.0865m 
 -419.27475m    1.0672u  699.9989m  107.0549m  592.9451m 
 -419.17475m    1.0735u  699.9989m  107.1963m  592.8037m 
 -419.07475m    1.0797u  699.9989m  107.3377m  592.6623m 
 -418.97475m    1.0860u  699.9989m  107.4792m  592.5209m 
 -418.87475m    1.0923u  699.9989m  107.6206m  592.3794m 
 -418.77475m    1.0987u  699.9989m  107.7620m  592.2380m 
 -418.67475m    1.1051u  699.9989m  107.9034m  592.0966m 
 -418.57475m    1.1116u  699.9989m  108.0448m  591.9552m 
 -418.47475m    1.1181u  699.9989m  108.1862m  591.8138m 
 -418.37475m    1.1246u  699.9989m  108.3277m  591.6724m 
 -418.27475m    1.1312u  699.9989m  108.4691m  591.5310m 
 -418.17475m    1.1378u  699.9989m  108.6105m  591.3895m 
 -418.07475m    1.1444u  699.9989m  108.7519m  591.2481m 
 -417.97475m    1.1511u  699.9989m  108.8933m  591.1067m 
 -417.87475m    1.1578u  699.9989m  109.0347m  590.9653m 
 -417.77475m    1.1646u  699.9989m  109.1761m  590.8239m 
 -417.67475m    1.1714u  699.9988m  109.3176m  590.6825m 
 -417.57475m    1.1782u  699.9988m  109.4590m  590.5410m 
 -417.47475m    1.1851u  699.9988m  109.6004m  590.3996m 
 -417.37475m    1.1920u  699.9988m  109.7418m  590.2582m 
 -417.27475m    1.1990u  699.9988m  109.8832m  590.1168m 
 -417.17475m    1.2060u  699.9988m  110.0246m  589.9754m 
 -417.07475m    1.2131u  699.9988m  110.1660m  589.8340m 
 -416.97475m    1.2202u  699.9988m  110.3075m  589.6926m 
 -416.87475m    1.2273u  699.9988m  110.4489m  589.5511m 
 -416.77475m    1.2345u  699.9988m  110.5903m  589.4097m 
 -416.67475m    1.2417u  699.9988m  110.7317m  589.2683m 
 -416.57475m    1.2490u  699.9988m  110.8731m  589.1269m 
 -416.47475m    1.2563u  699.9988m  111.0145m  588.9855m 
 -416.37475m    1.2636u  699.9988m  111.1559m  588.8441m 
 -416.27475m    1.2710u  699.9988m  111.2974m  588.7027m 
 -416.17475m    1.2784u  699.9987m  111.4388m  588.5612m 
 -416.07475m    1.2859u  699.9987m  111.5802m  588.4198m 
 -415.97475m    1.2934u  699.9987m  111.7216m  588.2784m 
 -415.87475m    1.3010u  699.9987m  111.8630m  588.1370m 
 -415.77475m    1.3086u  699.9987m  112.0044m  587.9956m 
 -415.67475m    1.3163u  699.9987m  112.1458m  587.8542m 
 -415.57475m    1.3240u  699.9987m  112.2873m  587.7128m 
 -415.47475m    1.3317u  699.9987m  112.4287m  587.5714m 
 -415.37475m    1.3395u  699.9987m  112.5701m  587.4299m 
 -415.27475m    1.3474u  699.9987m  112.7115m  587.2885m 
 -415.17475m    1.3553u  699.9987m  112.8529m  587.1471m 
 -415.07475m    1.3632u  699.9987m  112.9943m  587.0057m 
 -414.97475m    1.3712u  699.9987m  113.1357m  586.8643m 
 -414.87475m    1.3792u  699.9986m  113.2772m  586.7229m 
 -414.77475m    1.3873u  699.9986m  113.4186m  586.5815m 
 -414.67475m    1.3954u  699.9986m  113.5600m  586.4400m 
 -414.57475m    1.4036u  699.9986m  113.7014m  586.2986m 
 -414.47475m    1.4118u  699.9986m  113.8428m  586.1572m 
 -414.37475m    1.4201u  699.9986m  113.9842m  586.0158m 
 -414.27475m    1.4284u  699.9986m  114.1256m  585.8744m 
 -414.17475m    1.4368u  699.9986m  114.2670m  585.7330m 
 -414.07475m    1.4452u  699.9986m  114.4085m  585.5916m 
 -413.97475m    1.4537u  699.9986m  114.5499m  585.4502m 
 -413.87475m    1.4622u  699.9986m  114.6913m  585.3087m 
 -413.77475m    1.4708u  699.9986m  114.8327m  585.1673m 
 -413.67475m    1.4794u  699.9986m  114.9741m  585.0259m 
 -413.57475m    1.4881u  699.9985m  115.1155m  584.8845m 
 -413.47475m    1.4969u  699.9985m  115.2569m  584.7431m 
 -413.37475m    1.5056u  699.9985m  115.3984m  584.6017m 
 -413.27475m    1.5145u  699.9985m  115.5398m  584.4603m 
 -413.17475m    1.5234u  699.9985m  115.6812m  584.3189m 
 -413.07475m    1.5323u  699.9985m  115.8226m  584.1774m 
 -412.97475m    1.5413u  699.9985m  115.9640m  584.0360m 
 -412.87475m    1.5503u  699.9985m  116.1054m  583.8946m 
 -412.77475m    1.5594u  699.9985m  116.2468m  583.7532m 
 -412.67475m    1.5686u  699.9985m  116.3882m  583.6118m 
 -412.57475m    1.5778u  699.9985m  116.5297m  583.4704m 
 -412.47475m    1.5871u  699.9984m  116.6711m  583.3290m 
 -412.37475m    1.5964u  699.9984m  116.8125m  583.1876m 
 -412.27475m    1.6058u  699.9984m  116.9539m  583.0461m 
 -412.17475m    1.6152u  699.9984m  117.0953m  582.9047m 
 -412.07475m    1.6247u  699.9984m  117.2367m  582.7633m 
 -411.97475m    1.6342u  699.9984m  117.3781m  582.6219m 
 -411.87475m    1.6438u  699.9984m  117.5195m  582.4805m 
 -411.77475m    1.6535u  699.9984m  117.6610m  582.3391m 
 -411.67475m    1.6632u  699.9984m  117.8024m  582.1977m 
 -411.57475m    1.6730u  699.9984m  117.9438m  582.0563m 
 -411.47475m    1.6828u  699.9984m  118.0852m  581.9149m 
 -411.37475m    1.6927u  699.9983m  118.2266m  581.7734m 
 -411.27475m    1.7026u  699.9983m  118.3680m  581.6320m 
 -411.17475m    1.7126u  699.9983m  118.5094m  581.4906m 
 -411.07475m    1.7227u  699.9983m  118.6508m  581.3492m 
 -410.97475m    1.7328u  699.9983m  118.7922m  581.2078m 
 -410.87475m    1.7430u  699.9983m  118.9337m  581.0664m 
 -410.77475m    1.7533u  699.9983m  119.0751m  580.9250m 
 -410.67475m    1.7636u  699.9983m  119.2165m  580.7836m 
 -410.57475m    1.7740u  699.9983m  119.3579m  580.6421m 
 -410.47475m    1.7844u  699.9983m  119.4993m  580.5007m 
 -410.37475m    1.7949u  699.9983m  119.6407m  580.3593m 
 -410.27475m    1.8055u  699.9982m  119.7821m  580.2179m 
 -410.17475m    1.8161u  699.9982m  119.9235m  580.0765m 
 -410.07475m    1.8268u  699.9982m  120.0650m  579.9351m 
 -409.97475m    1.8375u  699.9982m  120.2064m  579.7937m 
 -409.87475m    1.8483u  699.9982m  120.3478m  579.6523m 
 -409.77475m    1.8592u  699.9982m  120.4892m  579.5109m 
 -409.67475m    1.8702u  699.9982m  120.6306m  579.3695m 
 -409.57475m    1.8812u  699.9982m  120.7720m  579.2280m 
 -409.47475m    1.8923u  699.9982m  120.9134m  579.0866m 
 -409.37475m    1.9034u  699.9981m  121.0548m  578.9452m 
 -409.27475m    1.9146u  699.9981m  121.1962m  578.8038m 
 -409.17475m    1.9259u  699.9981m  121.3376m  578.6624m 
 -409.07475m    1.9372u  699.9981m  121.4791m  578.5210m 
 -408.97475m    1.9486u  699.9981m  121.6205m  578.3796m 
 -408.87475m    1.9601u  699.9981m  121.7619m  578.2382m 
 -408.77475m    1.9717u  699.9981m  121.9033m  578.0968m 
 -408.67475m    1.9833u  699.9981m  122.0447m  577.9554m 
 -408.57475m    1.9950u  699.9981m  122.1861m  577.8139m 
 -408.47475m    2.0067u  699.9980m  122.3275m  577.6725m 
 -408.37475m    2.0186u  699.9980m  122.4689m  577.5311m 
 -408.27475m    2.0305u  699.9980m  122.6103m  577.3897m 
 -408.17475m    2.0424u  699.9980m  122.7518m  577.2483m 
 -408.07475m    2.0545u  699.9980m  122.8932m  577.1069m 
 -407.97475m    2.0666u  699.9980m  123.0346m  576.9655m 
 -407.87475m    2.0788u  699.9980m  123.1760m  576.8241m 
 -407.77475m    2.0910u  699.9980m  123.3174m  576.6827m 
 -407.67475m    2.1034u  699.9980m  123.4588m  576.5413m 
 -407.57475m    2.1158u  699.9979m  123.6002m  576.3999m 
 -407.47475m    2.1282u  699.9979m  123.7416m  576.2584m 
 -407.37475m    2.1408u  699.9979m  123.8830m  576.1170m 
 -407.27475m    2.1534u  699.9979m  124.0244m  575.9756m 
 -407.17475m    2.1661u  699.9979m  124.1658m  575.8342m 
 -407.07475m    2.1789u  699.9979m  124.3073m  575.6928m 
 -406.97475m    2.1918u  699.9979m  124.4487m  575.5514m 
 -406.87475m    2.2047u  699.9979m  124.5901m  575.4100m 
 -406.77475m    2.2177u  699.9978m  124.7315m  575.2686m 
 -406.67475m    2.2308u  699.9978m  124.8729m  575.1272m 
 -406.57475m    2.2440u  699.9978m  125.0143m  574.9858m 
 -406.47475m    2.2572u  699.9978m  125.1557m  574.8444m 
 -406.37475m    2.2706u  699.9978m  125.2971m  574.7029m 
 -406.27475m    2.2840u  699.9978m  125.4385m  574.5615m 
 -406.17475m    2.2974u  699.9978m  125.5799m  574.4201m 
 -406.07475m    2.3110u  699.9978m  125.7213m  574.2787m 
 -405.97475m    2.3247u  699.9977m  125.8628m  574.1373m 
 -405.87475m    2.3384u  699.9977m  126.0042m  573.9959m 
 -405.77475m    2.3522u  699.9977m  126.1456m  573.8545m 
 -405.67475m    2.3661u  699.9977m  126.2870m  573.7131m 
 -405.57475m    2.3801u  699.9977m  126.4284m  573.5717m 
 -405.47475m    2.3942u  699.9977m  126.5698m  573.4303m 
 -405.37475m    2.4083u  699.9977m  126.7112m  573.2889m 
 -405.27475m    2.4225u  699.9977m  126.8526m  573.1475m 
 -405.17475m    2.4369u  699.9976m  126.9940m  573.0061m 
 -405.07475m    2.4513u  699.9976m  127.1354m  572.8647m 
 -404.97475m    2.4657u  699.9976m  127.2768m  572.7232m 
 -404.87475m    2.4803u  699.9976m  127.4182m  572.5818m 
 -404.77475m    2.4950u  699.9976m  127.5596m  572.4404m 
 -404.67475m    2.5097u  699.9976m  127.7011m  572.2990m 
 -404.57475m    2.5246u  699.9976m  127.8425m  572.1576m 
 -404.47475m    2.5395u  699.9975m  127.9839m  572.0162m 
 -404.37475m    2.5545u  699.9975m  128.1253m  571.8748m 
 -404.27475m    2.5696u  699.9975m  128.2667m  571.7334m 
 -404.17475m    2.5848u  699.9975m  128.4081m  571.5920m 
 -404.07475m    2.6001u  699.9975m  128.5495m  571.4506m 
 -403.97475m    2.6155u  699.9975m  128.6909m  571.3092m 
 -403.87475m    2.6310u  699.9975m  128.8323m  571.1678m 
 -403.77475m    2.6466u  699.9974m  128.9737m  571.0264m 
 -403.67475m    2.6622u  699.9974m  129.1151m  570.8850m 
 -403.57475m    2.6780u  699.9974m  129.2565m  570.7436m 
 -403.47475m    2.6938u  699.9974m  129.3979m  570.6022m 
 -403.37475m    2.7098u  699.9974m  129.5393m  570.4607m 
 -403.27475m    2.7258u  699.9974m  129.6808m  570.3193m 
 -403.17475m    2.7420u  699.9974m  129.8222m  570.1779m 
 -403.07475m    2.7582u  699.9973m  129.9636m  570.0365m 
 -402.97475m    2.7745u  699.9973m  130.1050m  569.8951m 
 -402.87475m    2.7910u  699.9973m  130.2464m  569.7537m 
 -402.77475m    2.8075u  699.9973m  130.3878m  569.6123m 
 -402.67475m    2.8241u  699.9973m  130.5292m  569.4709m 
 -402.57475m    2.8409u  699.9973m  130.6706m  569.3295m 
 -402.47475m    2.8577u  699.9972m  130.8120m  569.1881m 
 -402.37475m    2.8746u  699.9972m  130.9534m  569.0467m 
 -402.27475m    2.8917u  699.9972m  131.0948m  568.9053m 
 -402.17475m    2.9088u  699.9972m  131.2362m  568.7639m 
 -402.07475m    2.9260u  699.9972m  131.3776m  568.6225m 
 -401.97475m    2.9434u  699.9972m  131.5190m  568.4811m 
 -401.87475m    2.9608u  699.9971m  131.6604m  568.3397m 
 -401.77475m    2.9784u  699.9971m  131.8018m  568.1983m 
 -401.67475m    2.9960u  699.9971m  131.9432m  568.0569m 
 -401.57475m    3.0138u  699.9971m  132.0846m  567.9155m 
 -401.47475m    3.0317u  699.9971m  132.2260m  567.7741m 
 -401.37475m    3.0497u  699.9971m  132.3675m  567.6327m 
 -401.27475m    3.0677u  699.9970m  132.5089m  567.4913m 
 -401.17475m    3.0859u  699.9970m  132.6503m  567.3499m 
 -401.07475m    3.1042u  699.9970m  132.7917m  567.2085m 
 -400.97475m    3.1227u  699.9970m  132.9331m  567.0670m 
 -400.87475m    3.1412u  699.9970m  133.0745m  566.9256m 
 -400.77475m    3.1598u  699.9970m  133.2159m  566.7842m 
 -400.67475m    3.1786u  699.9969m  133.3573m  566.6428m 
 -400.57475m    3.1974u  699.9969m  133.4987m  566.5014m 
 -400.47475m    3.2164u  699.9969m  133.6401m  566.3600m 
 -400.37475m    3.2355u  699.9969m  133.7815m  566.2186m 
 -400.27475m    3.2547u  699.9969m  133.9229m  566.0772m 
 -400.17475m    3.2740u  699.9969m  134.0643m  565.9358m 
 -400.07475m    3.2935u  699.9968m  134.2057m  565.7944m 
 -399.97475m    3.3130u  699.9968m  134.3471m  565.6530m 
 -399.87475m    3.3327u  699.9968m  134.4885m  565.5116m 
 -399.77475m    3.3525u  699.9968m  134.6299m  565.3702m 
 -399.67475m    3.3724u  699.9968m  134.7713m  565.2288m 
 -399.57475m    3.3924u  699.9967m  134.9127m  565.0874m 
 -399.47475m    3.4126u  699.9967m  135.0541m  564.9460m 
 -399.37475m    3.4328u  699.9967m  135.1955m  564.8046m 
 -399.27475m    3.4532u  699.9967m  135.3369m  564.6632m 
 -399.17475m    3.4737u  699.9967m  135.4783m  564.5218m 
 -399.07475m    3.4944u  699.9966m  135.6197m  564.3804m 
 -398.97475m    3.5151u  699.9966m  135.7611m  564.2390m 
 -398.87475m    3.5360u  699.9966m  135.9025m  564.0976m 
 -398.77475m    3.5571u  699.9966m  136.0439m  563.9562m 
 -398.67475m    3.5782u  699.9966m  136.1853m  563.8148m 
 -398.57475m    3.5995u  699.9965m  136.3267m  563.6734m 
 -398.47475m    3.6209u  699.9965m  136.4681m  563.5320m 
 -398.37475m    3.6424u  699.9965m  136.6095m  563.3906m 
 -398.27475m    3.6640u  699.9965m  136.7509m  563.2492m 
 -398.17475m    3.6858u  699.9965m  136.8923m  563.1078m 
 -398.07475m    3.7078u  699.9964m  137.0337m  562.9664m 
 -397.97475m    3.7298u  699.9964m  137.1751m  562.8250m 
 -397.87475m    3.7520u  699.9964m  137.3165m  562.6836m 
 -397.77475m    3.7743u  699.9964m  137.4579m  562.5422m 
 -397.67475m    3.7968u  699.9964m  137.5993m  562.4008m 
 -397.57475m    3.8193u  699.9963m  137.7407m  562.2594m 
 -397.47475m    3.8421u  699.9963m  137.8821m  562.1180m 
 -397.37475m    3.8649u  699.9963m  138.0235m  561.9766m 
 -397.27475m    3.8879u  699.9963m  138.1649m  561.8352m 
 -397.17475m    3.9111u  699.9963m  138.3063m  561.6938m 
 -397.07475m    3.9344u  699.9962m  138.4477m  561.5524m 
 -396.97475m    3.9578u  699.9962m  138.5891m  561.4110m 
 -396.87475m    3.9813u  699.9962m  138.7305m  561.2696m 
 -396.77475m    4.0050u  699.9962m  138.8719m  561.1282m 
 -396.67475m    4.0289u  699.9961m  139.0133m  560.9868m 
 -396.57475m    4.0529u  699.9961m  139.1547m  560.8454m 
 -396.47475m    4.0770u  699.9961m  139.2961m  560.7040m 
 -396.37475m    4.1013u  699.9961m  139.4375m  560.5626m 
 -396.27475m    4.1257u  699.9961m  139.5789m  560.4212m 
 -396.17475m    4.1503u  699.9960m  139.7203m  560.2799m 
 -396.07475m    4.1750u  699.9960m  139.8617m  560.1385m 
 -395.97475m    4.1999u  699.9960m  140.0031m  559.9971m 
 -395.87475m    4.2249u  699.9960m  140.1445m  559.8557m 
 -395.77475m    4.2501u  699.9959m  140.2859m  559.7143m 
 -395.67475m    4.2754u  699.9959m  140.4273m  559.5729m 
 -395.57475m    4.3009u  699.9959m  140.5687m  559.4315m 
 -395.47475m    4.3265u  699.9959m  140.7101m  559.2901m 
 -395.37475m    4.3523u  699.9958m  140.8515m  559.1487m 
 -395.27475m    4.3782u  699.9958m  140.9929m  559.0073m 
 -395.17475m    4.4043u  699.9958m  141.1343m  558.8659m 
 -395.07475m    4.4306u  699.9958m  141.2757m  558.7245m 
 -394.97475m    4.4570u  699.9957m  141.4171m  558.5831m 
 -394.87475m    4.4836u  699.9957m  141.5585m  558.4417m 
 -394.77475m    4.5103u  699.9957m  141.6999m  558.3003m 
 -394.67475m    4.5372u  699.9957m  141.8413m  558.1589m 
 -394.57475m    4.5643u  699.9956m  141.9827m  558.0175m 
 -394.47475m    4.5915u  699.9956m  142.1241m  557.8761m 
 -394.37475m    4.6189u  699.9956m  142.2655m  557.7347m 
 -394.27475m    4.6465u  699.9956m  142.4069m  557.5933m 
 -394.17475m    4.6742u  699.9955m  142.5483m  557.4519m 
 -394.07475m    4.7021u  699.9955m  142.6897m  557.3106m 
 -393.97475m    4.7301u  699.9955m  142.8311m  557.1692m 
 -393.87475m    4.7584u  699.9955m  142.9725m  557.0278m 
 -393.77475m    4.7868u  699.9954m  143.1139m  556.8864m 
 -393.67475m    4.8153u  699.9954m  143.2552m  556.7450m 
 -393.57475m    4.8441u  699.9954m  143.3966m  556.6036m 
 -393.47475m    4.8730u  699.9954m  143.5380m  556.4622m 
 -393.37475m    4.9021u  699.9953m  143.6794m  556.3208m 
 -393.27475m    4.9314u  699.9953m  143.8208m  556.1794m 
 -393.17475m    4.9608u  699.9953m  143.9622m  556.0380m 
 -393.07475m    4.9904u  699.9952m  144.1036m  555.8966m 
 -392.97475m    5.0202u  699.9952m  144.2450m  555.7552m 
 -392.87475m    5.0502u  699.9952m  144.3864m  555.6138m 
 -392.77475m    5.0804u  699.9952m  144.5278m  555.4725m 
 -392.67475m    5.1107u  699.9951m  144.6692m  555.3311m 
 -392.57475m    5.1413u  699.9951m  144.8106m  555.1897m 
 -392.47475m    5.1720u  699.9951m  144.9520m  555.0483m 
 -392.37475m    5.2029u  699.9951m  145.0934m  554.9069m 
 -392.27475m    5.2340u  699.9950m  145.2348m  554.7655m 
 -392.17475m    5.2653u  699.9950m  145.3761m  554.6241m 
 -392.07475m    5.2967u  699.9950m  145.5175m  554.4827m 
 -391.97475m    5.3284u  699.9949m  145.6589m  554.3413m 
 -391.87475m    5.3602u  699.9949m  145.8003m  554.1999m 
 -391.77475m    5.3923u  699.9949m  145.9417m  554.0586m 
 -391.67475m    5.4245u  699.9948m  146.0831m  553.9172m 
 -391.57475m    5.4570u  699.9948m  146.2245m  553.7758m 
 -391.47475m    5.4896u  699.9948m  146.3659m  553.6344m 
 -391.37475m    5.5224u  699.9948m  146.5073m  553.4930m 
 -391.27475m    5.5554u  699.9947m  146.6487m  553.3516m 
 -391.17475m    5.5887u  699.9947m  146.7901m  553.2102m 
 -391.07475m    5.6221u  699.9947m  146.9315m  553.0688m 
 -390.97475m    5.6557u  699.9946m  147.0728m  552.9274m 
 -390.87475m    5.6896u  699.9946m  147.2142m  552.7861m 
 -390.77475m    5.7236u  699.9946m  147.3556m  552.6447m 
 -390.67475m    5.7579u  699.9945m  147.4970m  552.5033m 
 -390.57475m    5.7923u  699.9945m  147.6384m  552.3619m 
 -390.47475m    5.8270u  699.9945m  147.7798m  552.2205m 
 -390.37475m    5.8619u  699.9944m  147.9212m  552.0791m 
 -390.27475m    5.8969u  699.9944m  148.0626m  551.9377m 
 -390.17475m    5.9322u  699.9944m  148.2040m  551.7964m 
 -390.07475m    5.9678u  699.9943m  148.3453m  551.6550m 
 -389.97475m    6.0035u  699.9943m  148.4867m  551.5136m 
 -389.87475m    6.0394u  699.9943m  148.6281m  551.3722m 
 -389.77475m    6.0756u  699.9942m  148.7695m  551.2308m 
 -389.67475m    6.1120u  699.9942m  148.9109m  551.0894m 
 -389.57475m    6.1486u  699.9942m  149.0523m  550.9480m 
 -389.47475m    6.1854u  699.9941m  149.1937m  550.8067m 
 -389.37475m    6.2225u  699.9941m  149.3351m  550.6653m 
 -389.27475m    6.2597u  699.9941m  149.4764m  550.5239m 
 -389.17475m    6.2972u  699.9940m  149.6178m  550.3825m 
 -389.07475m    6.3350u  699.9940m  149.7592m  550.2411m 
 -388.97475m    6.3729u  699.9940m  149.9006m  550.0997m 
 -388.87475m    6.4111u  699.9939m  150.0420m  549.9584m 
 -388.77475m    6.4496u  699.9939m  150.1834m  549.8170m 
 -388.67475m    6.4882u  699.9939m  150.3248m  549.6756m 
 -388.57475m    6.5271u  699.9938m  150.4661m  549.5342m 
 -388.47475m    6.5662u  699.9938m  150.6075m  549.3928m 
 -388.37475m    6.6056u  699.9938m  150.7489m  549.2514m 
 -388.27475m    6.6452u  699.9937m  150.8903m  549.1101m 
 -388.17475m    6.6850u  699.9937m  151.0317m  548.9687m 
 -388.07475m    6.7251u  699.9936m  151.1731m  548.8273m 
 -387.97475m    6.7655u  699.9936m  151.3145m  548.6859m 
 -387.87475m    6.8060u  699.9936m  151.4558m  548.5445m 
 -387.77475m    6.8469u  699.9935m  151.5972m  548.4032m 
 -387.67475m    6.8879u  699.9935m  151.7386m  548.2618m 
 -387.57475m    6.9292u  699.9935m  151.8800m  548.1204m 
 -387.47475m    6.9708u  699.9934m  152.0214m  547.9790m 
 -387.37475m    7.0126u  699.9934m  152.1628m  547.8376m 
 -387.27475m    7.0547u  699.9933m  152.3041m  547.6963m 
 -387.17475m    7.0971u  699.9933m  152.4455m  547.5549m 
 -387.07475m    7.1396u  699.9933m  152.5869m  547.4135m 
 -386.97475m    7.1825u  699.9932m  152.7283m  547.2721m 
 -386.87475m    7.2256u  699.9932m  152.8697m  547.1307m 
 -386.77475m    7.2690u  699.9931m  153.0110m  546.9894m 
 -386.67475m    7.3126u  699.9931m  153.1524m  546.8480m 
 -386.57475m    7.3565u  699.9931m  153.2938m  546.7066m 
 -386.47475m    7.4007u  699.9930m  153.4352m  546.5652m 
 -386.37475m    7.4451u  699.9930m  153.5766m  546.4239m 
 -386.27475m    7.4899u  699.9929m  153.7180m  546.2825m 
 -386.17475m    7.5348u  699.9929m  153.8593m  546.1411m 
 -386.07475m    7.5801u  699.9929m  154.0007m  545.9997m 
 -385.97475m    7.6256u  699.9928m  154.1421m  545.8583m 
 -385.87475m    7.6714u  699.9928m  154.2835m  545.7170m 
 -385.77475m    7.7175u  699.9927m  154.4248m  545.5756m 
 -385.67475m    7.7639u  699.9927m  154.5662m  545.4342m 
 -385.57475m    7.8105u  699.9926m  154.7076m  545.2928m 
 -385.47475m    7.8575u  699.9926m  154.8490m  545.1515m 
 -385.37475m    7.9047u  699.9926m  154.9904m  545.0101m 
 -385.27475m    7.9522u  699.9925m  155.1317m  544.8687m 
 -385.17475m    8.0000u  699.9925m  155.2731m  544.7274m 
 -385.07475m    8.0481u  699.9924m  155.4145m  544.5860m 
 -384.97475m    8.0965u  699.9924m  155.5559m  544.4446m 
 -384.87475m    8.1452u  699.9923m  155.6972m  544.3032m 
 -384.77475m    8.1941u  699.9923m  155.8386m  544.1619m 
 -384.67475m    8.2434u  699.9922m  155.9800m  544.0205m 
 -384.57475m    8.2930u  699.9922m  156.1214m  543.8791m 
 -384.47475m    8.3429u  699.9922m  156.2628m  543.7377m 
 -384.37475m    8.3930u  699.9921m  156.4041m  543.5964m 
 -384.27475m    8.4435u  699.9921m  156.5455m  543.4550m 
 -384.17475m    8.4943u  699.9920m  156.6869m  543.3136m 
 -384.07475m    8.5454u  699.9920m  156.8283m  543.1723m 
 -383.97475m    8.5968u  699.9919m  156.9696m  543.0309m 
 -383.87475m    8.6486u  699.9919m  157.1110m  542.8895m 
 -383.77475m    8.7006u  699.9918m  157.2524m  542.7482m 
 -383.67475m    8.7530u  699.9918m  157.3937m  542.6068m 
 -383.57475m    8.8057u  699.9917m  157.5351m  542.4654m 
 -383.47475m    8.8587u  699.9917m  157.6765m  542.3240m 
 -383.37475m    8.9120u  699.9916m  157.8179m  542.1827m 
 -383.27475m    8.9656u  699.9916m  157.9592m  542.0413m 
 -383.17475m    9.0196u  699.9915m  158.1006m  541.8999m 
 -383.07475m    9.0739u  699.9915m  158.2420m  541.7586m 
 -382.97475m    9.1286u  699.9914m  158.3834m  541.6172m 
 -382.87475m    9.1835u  699.9914m  158.5247m  541.4758m 
 -382.77475m    9.2388u  699.9913m  158.6661m  541.3345m 
 -382.67475m    9.2945u  699.9913m  158.8075m  541.1931m 
 -382.57475m    9.3505u  699.9912m  158.9488m  541.0517m 
 -382.47475m    9.4068u  699.9912m  159.0902m  540.9104m 
 -382.37475m    9.4635u  699.9911m  159.2316m  540.7690m 
 -382.27475m    9.5205u  699.9911m  159.3729m  540.6277m 
 -382.17475m    9.5779u  699.9910m  159.5143m  540.4863m 
 -382.07475m    9.6356u  699.9910m  159.6557m  540.3449m 
 -381.97475m    9.6936u  699.9909m  159.7971m  540.2036m 
 -381.87475m    9.7521u  699.9909m  159.9384m  540.0622m 
 -381.77475m    9.8108u  699.9908m  160.0798m  539.9208m 
 -381.67475m    9.8700u  699.9908m  160.2212m  539.7795m 
 -381.57475m    9.9295u  699.9907m  160.3625m  539.6381m 
 -381.47475m    9.9894u  699.9906m  160.5039m  539.4968m 
 -381.37475m   10.0496u  699.9906m  160.6453m  539.3554m 
 -381.27475m   10.1102u  699.9905m  160.7866m  539.2140m 
 -381.17475m   10.1711u  699.9905m  160.9280m  539.0727m 
 -381.07475m   10.2325u  699.9904m  161.0694m  538.9313m 
 -380.97475m   10.2942u  699.9904m  161.2107m  538.7899m 
 -380.87475m   10.3563u  699.9903m  161.3521m  538.6486m 
 -380.77475m   10.4188u  699.9903m  161.4934m  538.5072m 
 -380.67475m   10.4816u  699.9902m  161.6348m  538.3659m 
 -380.57475m   10.5449u  699.9901m  161.7762m  538.2245m 
 -380.47475m   10.6085u  699.9901m  161.9175m  538.0832m 
 -380.37475m   10.6725u  699.9900m  162.0589m  537.9418m 
 -380.27475m   10.7369u  699.9900m  162.2003m  537.8004m 
 -380.17475m   10.8017u  699.9899m  162.3416m  537.6591m 
 -380.07475m   10.8669u  699.9898m  162.4830m  537.5177m 
 -379.97475m   10.9325u  699.9898m  162.6243m  537.3764m 
 -379.87475m   10.9985u  699.9897m  162.7657m  537.2350m 
 -379.77475m   11.0649u  699.9897m  162.9071m  537.0937m 
 -379.67475m   11.1317u  699.9896m  163.0484m  536.9523m 
 -379.57475m   11.1989u  699.9895m  163.1898m  536.8110m 
 -379.47475m   11.2666u  699.9895m  163.3312m  536.6696m 
 -379.37475m   11.3346u  699.9894m  163.4725m  536.5282m 
 -379.27475m   11.4031u  699.9894m  163.6139m  536.3869m 
 -379.17475m   11.4719u  699.9893m  163.7552m  536.2455m 
 -379.07475m   11.5412u  699.9892m  163.8966m  536.1042m 
 -378.97475m   11.6110u  699.9892m  164.0379m  535.9628m 
 -378.87475m   11.6811u  699.9891m  164.1793m  535.8215m 
 -378.77475m   11.7517u  699.9890m  164.3207m  535.6801m 
 -378.67475m   11.8227u  699.9890m  164.4620m  535.5388m 
 -378.57475m   11.8941u  699.9889m  164.6034m  535.3974m 
 -378.47475m   11.9660u  699.9888m  164.7447m  535.2561m 
 -378.37475m   12.0383u  699.9888m  164.8861m  535.1147m 
 -378.27475m   12.1111u  699.9887m  165.0274m  534.9734m 
 -378.17475m   12.1843u  699.9887m  165.1688m  534.8320m 
 -378.07475m   12.2580u  699.9886m  165.3101m  534.6907m 
 -377.97475m   12.3321u  699.9885m  165.4515m  534.5493m 
 -377.87475m   12.4067u  699.9884m  165.5929m  534.4080m 
 -377.77475m   12.4817u  699.9884m  165.7342m  534.2667m 
 -377.67475m   12.5572u  699.9883m  165.8756m  534.1253m 
 -377.57475m   12.6331u  699.9882m  166.0169m  533.9840m 
 -377.47475m   12.7095u  699.9882m  166.1583m  533.8426m 
 -377.37475m   12.7864u  699.9881m  166.2996m  533.7013m 
 -377.27475m   12.8638u  699.9880m  166.4410m  533.5599m 
 -377.17475m   12.9416u  699.9880m  166.5823m  533.4186m 
 -377.07475m   13.0199u  699.9879m  166.7237m  533.2772m 
 -376.97475m   13.0987u  699.9878m  166.8650m  533.1359m 
 -376.87475m   13.1779u  699.9877m  167.0064m  532.9946m 
 -376.77475m   13.2577u  699.9877m  167.1477m  532.8532m 
 -376.67475m   13.3379u  699.9876m  167.2891m  532.7119m 
 -376.57475m   13.4187u  699.9875m  167.4304m  532.5705m 
 -376.47475m   13.4999u  699.9875m  167.5718m  532.4292m 
 -376.37475m   13.5816u  699.9874m  167.7131m  532.2879m 
 -376.27475m   13.6639u  699.9873m  167.8545m  532.1465m 
 -376.17475m   13.7466u  699.9872m  167.9958m  532.0052m 
 -376.07475m   13.8298u  699.9872m  168.1372m  531.8638m 
 -375.97475m   13.9136u  699.9871m  168.2785m  531.7225m 
 -375.87475m   13.9978u  699.9870m  168.4198m  531.5812m 
 -375.77475m   14.0826u  699.9869m  168.5612m  531.4398m 
 -375.67475m   14.1679u  699.9869m  168.7025m  531.2985m 
 -375.57475m   14.2538u  699.9868m  168.8439m  531.1572m 
 -375.47475m   14.3401u  699.9867m  168.9852m  531.0158m 
 -375.37475m   14.4270u  699.9866m  169.1266m  530.8745m 
 -375.27475m   14.5144u  699.9865m  169.2679m  530.7332m 
 -375.17475m   14.6024u  699.9865m  169.4092m  530.5918m 
 -375.07475m   14.6909u  699.9864m  169.5506m  530.4505m 
 -374.97475m   14.7799u  699.9863m  169.6919m  530.3092m 
 -374.87475m   14.8695u  699.9862m  169.8333m  530.1678m 
 -374.77475m   14.9596u  699.9861m  169.9746m  530.0265m 
 -374.67475m   15.0503u  699.9861m  170.1159m  529.8852m 
 -374.57475m   15.1415u  699.9860m  170.2573m  529.7438m 
 -374.47475m   15.2333u  699.9859m  170.3986m  529.6025m 
 -374.37475m   15.3257u  699.9858m  170.5400m  529.4612m 
 -374.27475m   15.4187u  699.9857m  170.6813m  529.3198m 
 -374.17475m   15.5122u  699.9856m  170.8226m  529.1785m 
 -374.07475m   15.6062u  699.9856m  170.9640m  529.0372m 
 -373.97475m   15.7009u  699.9855m  171.1053m  528.8959m 
 -373.87475m   15.7962u  699.9854m  171.2466m  528.7545m 
 -373.77475m   15.8920u  699.9853m  171.3880m  528.6132m 
 -373.67475m   15.9884u  699.9852m  171.5293m  528.4719m 
 -373.57475m   16.0854u  699.9851m  171.6706m  528.3306m 
 -373.47475m   16.1830u  699.9850m  171.8120m  528.1892m 
 -373.37475m   16.2812u  699.9849m  171.9533m  528.0479m 
 -373.27475m   16.3800u  699.9849m  172.0946m  527.9066m 
 -373.17475m   16.4795u  699.9848m  172.2360m  527.7653m 
 -373.07475m   16.5795u  699.9847m  172.3773m  527.6239m 
 -372.97475m   16.6801u  699.9846m  172.5186m  527.4826m 
 -372.87475m   16.7814u  699.9845m  172.6600m  527.3413m 
 -372.77475m   16.8833u  699.9844m  172.8013m  527.2000m 
 -372.67475m   16.9858u  699.9843m  172.9426m  527.0587m 
 -372.57475m   17.0889u  699.9842m  173.0840m  526.9173m 
 -372.47475m   17.1927u  699.9841m  173.2253m  526.7760m 
 -372.37475m   17.2971u  699.9840m  173.3666m  526.6347m 
 -372.27475m   17.4022u  699.9839m  173.5079m  526.4934m 
 -372.17475m   17.5079u  699.9838m  173.6493m  526.3521m 
 -372.07475m   17.6143u  699.9837m  173.7906m  526.2108m 
 -371.97475m   17.7213u  699.9836m  173.9319m  526.0695m 
 -371.87475m   17.8290u  699.9836m  174.0732m  525.9281m 
 -371.77475m   17.9373u  699.9835m  174.2146m  525.7868m 
 -371.67475m   18.0463u  699.9834m  174.3559m  525.6455m 
 -371.57475m   18.1560u  699.9833m  174.4972m  525.5042m 
 -371.47475m   18.2663u  699.9832m  174.6385m  525.3629m 
 -371.37475m   18.3773u  699.9831m  174.7799m  525.2216m 
 -371.27475m   18.4890u  699.9830m  174.9212m  525.0803m 
 -371.17475m   18.6014u  699.9829m  175.0625m  524.9390m 
 -371.07475m   18.7145u  699.9828m  175.2038m  524.7977m 
 -370.97475m   18.8283u  699.9827m  175.3451m  524.6563m 
 -370.87475m   18.9428u  699.9826m  175.4865m  524.5150m 
 -370.77475m   19.0580u  699.9824m  175.6278m  524.3737m 
 -370.67475m   19.1739u  699.9823m  175.7691m  524.2324m 
 -370.57475m   19.2905u  699.9822m  175.9104m  524.0911m 
 -370.47475m   19.4079u  699.9821m  176.0517m  523.9498m 
 -370.37475m   19.5259u  699.9820m  176.1930m  523.8085m 
 -370.27475m   19.6447u  699.9819m  176.3344m  523.6672m 
 -370.17475m   19.7642u  699.9818m  176.4757m  523.5259m 
 -370.07475m   19.8845u  699.9817m  176.6170m  523.3846m 
 -369.97475m   20.0055u  699.9816m  176.7583m  523.2433m 
 -369.87475m   20.1272u  699.9815m  176.8996m  523.1020m 
 -369.77475m   20.2497u  699.9814m  177.0409m  522.9607m 
 -369.67475m   20.3730u  699.9813m  177.1822m  522.8194m 
 -369.57475m   20.4970u  699.9812m  177.3235m  522.6781m 
 -369.47475m   20.6218u  699.9810m  177.4648m  522.5368m 
 -369.37475m   20.7473u  699.9809m  177.6062m  522.3955m 
 -369.27475m   20.8736u  699.9808m  177.7475m  522.2542m 
 -369.17475m   21.0007u  699.9807m  177.8888m  522.1129m 
 -369.07475m   21.1286u  699.9806m  178.0301m  521.9716m 
 -368.97475m   21.2573u  699.9805m  178.1714m  521.8303m 
 -368.87475m   21.3868u  699.9804m  178.3127m  521.6891m 
 -368.77475m   21.5170u  699.9802m  178.4540m  521.5478m 
 -368.67475m   21.6481u  699.9801m  178.5953m  521.4065m 
 -368.57475m   21.7800u  699.9800m  178.7366m  521.2652m 
 -368.47475m   21.9127u  699.9799m  178.8779m  521.1239m 
 -368.37475m   22.0462u  699.9798m  179.0192m  520.9826m 
 -368.27475m   22.1805u  699.9797m  179.1605m  520.8413m 
 -368.17475m   22.3157u  699.9795m  179.3018m  520.7000m 
 -368.07475m   22.4517u  699.9794m  179.4431m  520.5588m 
 -367.97475m   22.5885u  699.9793m  179.5844m  520.4175m 
 -367.87475m   22.7262u  699.9792m  179.7257m  520.2762m 
 -367.77475m   22.8647u  699.9790m  179.8670m  520.1349m 
 -367.67475m   23.0041u  699.9789m  180.0083m  519.9936m 
 -367.57475m   23.1444u  699.9788m  180.1496m  519.8523m 
 -367.47475m   23.2855u  699.9787m  180.2909m  519.7111m 
 -367.37475m   23.4275u  699.9785m  180.4322m  519.5698m 
 -367.27475m   23.5704u  699.9784m  180.5735m  519.4285m 
 -367.17475m   23.7141u  699.9783m  180.7148m  519.2872m 
 -367.07475m   23.8587u  699.9782m  180.8561m  519.1459m 
 -366.97475m   24.0043u  699.9780m  180.9974m  519.0047m 
 -366.87475m   24.1507u  699.9779m  181.1386m  518.8634m 
 -366.77475m   24.2980u  699.9778m  181.2799m  518.7221m 
 -366.67475m   24.4463u  699.9776m  181.4212m  518.5808m 
 -366.57475m   24.5954u  699.9775m  181.5625m  518.4396m 
 -366.47475m   24.7455u  699.9774m  181.7038m  518.2983m 
 -366.37475m   24.8965u  699.9772m  181.8451m  518.1570m 
 -366.27475m   25.0485u  699.9771m  181.9864m  518.0158m 
 -366.17475m   25.2014u  699.9770m  182.1277m  517.8745m 
 -366.07475m   25.3552u  699.9768m  182.2689m  517.7332m 
 -365.97475m   25.5100u  699.9767m  182.4102m  517.5920m 
 -365.87475m   25.6657u  699.9765m  182.5515m  517.4507m 
 -365.77475m   25.8224u  699.9764m  182.6928m  517.3094m 
 -365.67475m   25.9801u  699.9763m  182.8341m  517.1682m 
 -365.57475m   26.1387u  699.9761m  182.9754m  517.0269m 
 -365.47475m   26.2984u  699.9760m  183.1166m  516.8856m 
 -365.37475m   26.4590u  699.9758m  183.2579m  516.7444m 
 -365.27475m   26.6206u  699.9757m  183.3992m  516.6031m 
 -365.17475m   26.7832u  699.9755m  183.5405m  516.4619m 
 -365.07475m   26.9468u  699.9754m  183.6817m  516.3206m 
 -364.97475m   27.1114u  699.9753m  183.8230m  516.1793m 
 -364.87475m   27.2771u  699.9751m  183.9643m  516.0381m 
 -364.77475m   27.4438u  699.9750m  184.1056m  515.8968m 
 -364.67475m   27.6115u  699.9748m  184.2468m  515.7556m 
 -364.57475m   27.7802u  699.9747m  184.3881m  515.6143m 
 -364.47475m   27.9500u  699.9745m  184.5294m  515.4731m 
 -364.37475m   28.1208u  699.9744m  184.6706m  515.3318m 
 -364.27475m   28.2927u  699.9742m  184.8119m  515.1906m 
 -364.17475m   28.4657u  699.9740m  184.9532m  515.0493m 
 -364.07475m   28.6397u  699.9739m  185.0945m  514.9081m 
 -363.97475m   28.8148u  699.9737m  185.2357m  514.7668m 
 -363.87475m   28.9910u  699.9736m  185.3770m  514.6256m 
 -363.77475m   29.1683u  699.9734m  185.5182m  514.4843m 
 -363.67475m   29.3467u  699.9733m  185.6595m  514.3431m 
 -363.57475m   29.5262u  699.9731m  185.8008m  514.2019m 
 -363.47475m   29.7068u  699.9729m  185.9420m  514.0606m 
 -363.37475m   29.8885u  699.9728m  186.0833m  513.9194m 
 -363.27475m   30.0713u  699.9726m  186.2246m  513.7781m 
 -363.17475m   30.2553u  699.9725m  186.3658m  513.6369m 
 -363.07475m   30.4404u  699.9723m  186.5071m  513.4957m 
 -362.97475m   30.6267u  699.9721m  186.6483m  513.3544m 
 -362.87475m   30.8141u  699.9720m  186.7896m  513.2132m 
 -362.77475m   31.0027u  699.9718m  186.9308m  513.0720m 
 -362.67475m   31.1925u  699.9716m  187.0721m  512.9307m 
 -362.57475m   31.3834u  699.9715m  187.2133m  512.7895m 
 -362.47475m   31.5755u  699.9713m  187.3546m  512.6483m 
 -362.37475m   31.7688u  699.9711m  187.4958m  512.5071m 
 -362.27475m   31.9633u  699.9709m  187.6371m  512.3658m 
 -362.17475m   32.1590u  699.9708m  187.7783m  512.2246m 
 -362.07475m   32.3559u  699.9706m  187.9196m  512.0834m 
 -361.97475m   32.5541u  699.9704m  188.0608m  511.9422m 
 -361.87475m   32.7534u  699.9702m  188.2021m  511.8009m 
 -361.77475m   32.9540u  699.9701m  188.3433m  511.6597m 
 -361.67475m   33.1559u  699.9699m  188.4846m  511.5185m 
 -361.57475m   33.3590u  699.9697m  188.6258m  511.3773m 
 -361.47475m   33.5634u  699.9695m  188.7670m  511.2361m 
 -361.37475m   33.7690u  699.9693m  188.9083m  511.0948m 
 -361.27475m   33.9759u  699.9692m  189.0495m  510.9536m 
 -361.17475m   34.1841u  699.9690m  189.1908m  510.8124m 
 -361.07475m   34.3936u  699.9688m  189.3320m  510.6712m 
 -360.97475m   34.6044u  699.9686m  189.4732m  510.5300m 
 -360.87475m   34.8165u  699.9684m  189.6145m  510.3888m 
 -360.77475m   35.0299u  699.9682m  189.7557m  510.2476m 
 -360.67475m   35.2446u  699.9680m  189.8969m  510.1064m 
 -360.57475m   35.4607u  699.9679m  190.0382m  509.9652m 
 -360.47475m   35.6781u  699.9677m  190.1794m  509.8240m 
 -360.37475m   35.8968u  699.9675m  190.3206m  509.6828m 
 -360.27475m   36.1170u  699.9673m  190.4618m  509.5416m 
 -360.17475m   36.3385u  699.9671m  190.6031m  509.4004m 
 -360.07475m   36.5613u  699.9669m  190.7443m  509.2592m 
[...]
  469.52525m  699.9999m   65.3936n  664.0090m   35.9910m 
  469.62525m  699.9999m   65.0624n  664.1505m   35.8495m 
  469.72525m  699.9999m   64.7331n  664.2919m   35.7081m 
  469.82525m  699.9999m   64.4057n  664.4333m   35.5667m 
  469.92525m  699.9999m   64.0801n  664.5747m   35.4253m 
  470.02525m  699.9999m   63.7564n  664.7162m   35.2838m 
  470.12525m  699.9999m   63.4346n  664.8576m   35.1424m 
  470.22525m  699.9999m   63.1146n  664.9990m   35.0010m 
  470.32525m  699.9999m   62.7964n  665.1404m   34.8596m 
  470.42525m  699.9999m   62.4801n  665.2818m   34.7182m 
  470.52525m  699.9999m   62.1655n  665.4233m   34.5767m 
  470.62525m  699.9999m   61.8528n  665.5647m   34.4353m 
  470.72525m  699.9999m   61.5419n  665.7061m   34.2939m 
  470.82525m  699.9999m   61.2327n  665.8475m   34.1525m 
  470.92525m  699.9999m   60.9253n  665.9889m   34.0111m 
  471.02525m  699.9999m   60.6197n  666.1304m   33.8696m 
  471.12525m  699.9999m   60.3158n  666.2718m   33.7282m 
  471.22525m  699.9999m   60.0137n  666.4132m   33.5868m 
  471.32525m  699.9999m   59.7133n  666.5546m   33.4454m 
  471.42525m  699.9999m   59.4146n  666.6960m   33.3040m 
  471.52525m  699.9999m   59.1177n  666.8375m   33.1625m 
  471.62525m  699.9999m   58.8224n  666.9789m   33.0211m 
  471.72525m  699.9999m   58.5288n  667.1203m   32.8797m 
  471.82525m  699.9999m   58.2369n  667.2617m   32.7383m 
  471.92525m  699.9999m   57.9467n  667.4032m   32.5968m 
  472.02525m  699.9999m   57.6582n  667.5446m   32.4554m 
  472.12525m  699.9999m   57.3713n  667.6860m   32.3140m 
  472.22525m  699.9999m   57.0860n  667.8274m   32.1726m 
  472.32525m  699.9999m   56.8024n  667.9688m   32.0312m 
  472.42525m  699.9999m   56.5204n  668.1103m   31.8897m 
  472.52525m  699.9999m   56.2400n  668.2517m   31.7483m 
  472.62525m  699.9999m   55.9612n  668.3931m   31.6069m 
  472.72525m  699.9999m   55.6840n  668.5345m   31.4655m 
  472.82525m  699.9999m   55.4084n  668.6759m   31.3241m 
  472.92525m  699.9999m   55.1344n  668.8174m   31.1826m 
  473.02525m  699.9999m   54.8619n  668.9588m   31.0412m 
  473.12525m  699.9999m   54.5910n  669.1002m   30.8998m 
  473.22525m  699.9999m   54.3217n  669.2416m   30.7584m 
  473.32525m  699.9999m   54.0538n  669.3830m   30.6170m 
  473.42525m  699.9999m   53.7876n  669.5245m   30.4755m 
  473.52525m  699.9999m   53.5228n  669.6659m   30.3341m 
  473.62525m  699.9999m   53.2596n  669.8073m   30.1927m 
  473.72525m  699.9999m   52.9979n  669.9487m   30.0513m 
  473.82525m  699.9999m   52.7376n  670.0902m   29.9098m 
  473.92525m  699.9999m   52.4789n  670.2316m   29.7684m 
  474.02525m  699.9999m   52.2216n  670.3730m   29.6270m 
  474.12525m  699.9999m   51.9659n  670.5144m   29.4856m 
  474.22525m  699.9999m   51.7115n  670.6558m   29.3442m 
  474.32525m  699.9999m   51.4587n  670.7973m   29.2027m 
  474.42525m  699.9999m   51.2072n  670.9387m   29.0613m 
  474.52525m  699.9999m   50.9573n  671.0801m   28.9199m 
  474.62525m  700.0000m   50.7087n  671.2215m   28.7785m 
  474.72525m  700.0000m   50.4616n  671.3629m   28.6371m 
  474.82525m  700.0000m   50.2159n  671.5044m   28.4956m 
  474.92525m  700.0000m   49.9716n  671.6458m   28.3542m 
  475.02525m  700.0000m   49.7286n  671.7872m   28.2128m 
  475.12525m  700.0000m   49.4871n  671.9286m   28.0714m 
  475.22525m  700.0000m   49.2470n  672.0700m   27.9300m 
  475.32525m  700.0000m   49.0082n  672.2115m   27.7885m 
  475.42525m  700.0000m   48.7708n  672.3529m   27.6471m 
  475.52525m  700.0000m   48.5348n  672.4943m   27.5057m 
  475.62525m  700.0000m   48.3001n  672.6357m   27.3643m 
  475.72525m  700.0000m   48.0667n  672.7772m   27.2228m 
  475.82525m  700.0000m   47.8347n  672.9186m   27.0814m 
  475.92525m  700.0000m   47.6040n  673.0600m   26.9400m 
  476.02525m  700.0000m   47.3746n  673.2014m   26.7986m 
  476.12525m  700.0000m   47.1466n  673.3428m   26.6572m 
  476.22525m  700.0000m   46.9198n  673.4843m   26.5157m 
  476.32525m  700.0000m   46.6943n  673.6257m   26.3743m 
  476.42525m  700.0000m   46.4702n  673.7671m   26.2329m 
  476.52525m  700.0000m   46.2473n  673.9085m   26.0915m 
  476.62525m  700.0000m   46.0257n  674.0499m   25.9501m 
  476.72525m  700.0000m   45.8053n  674.1914m   25.8086m 
  476.82525m  700.0000m   45.5862n  674.3328m   25.6672m 
  476.92525m  700.0000m   45.3684n  674.4742m   25.5258m 
  477.02525m  700.0000m   45.1518n  674.6156m   25.3844m 
  477.12525m  700.0000m   44.9365n  674.7570m   25.2430m 
  477.22525m  700.0000m   44.7223n  674.8985m   25.1015m 
  477.32525m  700.0000m   44.5094n  675.0399m   24.9601m 
  477.42525m  700.0000m   44.2978n  675.1813m   24.8187m 
  477.52525m  700.0000m   44.0873n  675.3227m   24.6773m 
  477.62525m  700.0000m   43.8780n  675.4642m   24.5358m 
  477.72525m  700.0000m   43.6699n  675.6056m   24.3944m 
  477.82525m  700.0000m   43.4631n  675.7470m   24.2530m 
  477.92525m  700.0000m   43.2574n  675.8884m   24.1116m 
  478.02525m  700.0000m   43.0528n  676.0298m   23.9702m 
  478.12525m  700.0000m   42.8495n  676.1713m   23.8287m 
  478.22525m  700.0000m   42.6473n  676.3127m   23.6873m 
  478.32525m  700.0000m   42.4462n  676.4541m   23.5459m 
  478.42525m  700.0000m   42.2463n  676.5955m   23.4045m 
  478.52525m  700.0000m   42.0476n  676.7369m   23.2631m 
  478.62525m  700.0000m   41.8500n  676.8784m   23.1216m 
  478.72525m  700.0000m   41.6535n  677.0198m   22.9802m 
  478.82525m  700.0000m   41.4581n  677.1612m   22.8388m 
  478.92525m  700.0000m   41.2639n  677.3026m   22.6974m 
  479.02525m  700.0000m   41.0708n  677.4441m   22.5560m 
  479.12525m  700.0000m   40.8787n  677.5855m   22.4145m 
  479.22525m  700.0000m   40.6878n  677.7269m   22.2731m 
  479.32525m  700.0000m   40.4979n  677.8683m   22.1317m 
  479.42525m  700.0000m   40.3092n  678.0097m   21.9903m 
  479.52525m  700.0000m   40.1215n  678.1512m   21.8488m 
  479.62525m  700.0000m   39.9349n  678.2926m   21.7074m 
  479.72525m  700.0000m   39.7493n  678.4340m   21.5660m 
  479.82525m  700.0000m   39.5649n  678.5754m   21.4246m 
  479.92525m  700.0000m   39.3814n  678.7168m   21.2832m 
  480.02525m  700.0000m   39.1991n  678.8583m   21.1417m 
  480.12525m  700.0000m   39.0177n  678.9997m   21.0003m 
  480.22525m  700.0000m   38.8374n  679.1411m   20.8589m 
  480.32525m  700.0000m   38.6581n  679.2825m   20.7175m 
  480.42525m  700.0000m   38.4799n  679.4239m   20.5761m 
  480.52525m  700.0000m   38.3026n  679.5654m   20.4346m 
  480.62525m  700.0000m   38.1264n  679.7068m   20.2932m 
  480.72525m  700.0000m   37.9512n  679.8482m   20.1518m 
  480.82525m  700.0000m   37.7770n  679.9896m   20.0104m 
  480.92525m  700.0000m   37.6038n  680.1311m   19.8689m 
  481.02525m  700.0000m   37.4315n  680.2725m   19.7275m 
  481.12525m  700.0000m   37.2603n  680.4139m   19.5861m 
  481.22525m  700.0000m   37.0900n  680.5553m   19.4447m 
  481.32525m  700.0000m   36.9207n  680.6967m   19.3033m 
  481.42525m  700.0000m   36.7524n  680.8382m   19.1618m 
  481.52525m  700.0000m   36.5850n  680.9796m   19.0204m 
  481.62525m  700.0000m   36.4186n  681.1210m   18.8790m 
  481.72525m  700.0000m   36.2531n  681.2624m   18.7376m 
  481.82525m  700.0000m   36.0886n  681.4038m   18.5962m 
  481.92525m  700.0000m   35.9250n  681.5453m   18.4547m 
  482.02525m  700.0000m   35.7624n  681.6867m   18.3133m 
  482.12525m  700.0000m   35.6007n  681.8281m   18.1719m 
  482.22525m  700.0000m   35.4399n  681.9695m   18.0305m 
  482.32525m  700.0000m   35.2800n  682.1109m   17.8891m 
  482.42525m  700.0000m   35.1210n  682.2524m   17.7476m 
  482.52525m  700.0000m   34.9629n  682.3938m   17.6062m 
  482.62525m  700.0000m   34.8058n  682.5352m   17.4648m 
  482.72525m  700.0000m   34.6495n  682.6766m   17.3234m 
  482.82525m  700.0000m   34.4942n  682.8181m   17.1819m 
  482.92525m  700.0000m   34.3397n  682.9595m   17.0405m 
  483.02525m  700.0000m   34.1861n  683.1009m   16.8991m 
  483.12525m  700.0000m   34.0334n  683.2423m   16.7577m 
  483.22525m  700.0000m   33.8815n  683.3837m   16.6163m 
  483.32525m  700.0000m   33.7305n  683.5252m   16.4748m 
  483.42525m  700.0000m   33.5804n  683.6666m   16.3334m 
  483.52525m  700.0000m   33.4311n  683.8080m   16.1920m 
  483.62525m  700.0000m   33.2827n  683.9494m   16.0506m 
  483.72525m  700.0000m   33.1351n  684.0908m   15.9092m 
  483.82525m  700.0000m   32.9884n  684.2323m   15.7677m 
  483.92525m  700.0000m   32.8425n  684.3737m   15.6263m 
  484.02525m  700.0000m   32.6975n  684.5151m   15.4849m 
  484.12525m  700.0000m   32.5532n  684.6565m   15.3435m 
  484.22525m  700.0000m   32.4098n  684.7980m   15.2020m 
  484.32525m  700.0000m   32.2672n  684.9394m   15.0606m 
  484.42525m  700.0000m   32.1255n  685.0808m   14.9192m 
  484.52525m  700.0000m   31.9845n  685.2222m   14.7778m 
  484.62525m  700.0000m   31.8443n  685.3636m   14.6364m 
  484.72525m  700.0000m   31.7050n  685.5051m   14.4949m 
  484.82525m  700.0000m   31.5664n  685.6465m   14.3535m 
  484.92525m  700.0000m   31.4286n  685.7879m   14.2121m 
  485.02525m  700.0000m   31.2916n  685.9293m   14.0707m 
  485.12525m  700.0000m   31.1554n  686.0707m   13.9293m 
  485.22525m  700.0000m   31.0200n  686.2122m   13.7878m 
  485.32525m  700.0000m   30.8853n  686.3536m   13.6464m 
  485.42525m  700.0000m   30.7514n  686.4950m   13.5050m 
  485.52525m  700.0000m   30.6183n  686.6364m   13.3636m 
  485.62525m  700.0000m   30.4859n  686.7778m   13.2222m 
  485.72525m  700.0000m   30.3543n  686.9193m   13.0807m 
  485.82525m  700.0000m   30.2234n  687.0607m   12.9393m 
  485.92525m  700.0000m   30.0933n  687.2021m   12.7979m 
  486.02525m  700.0000m   29.9640n  687.3435m   12.6565m 
  486.12525m  700.0000m   29.8353n  687.4850m   12.5150m 
  486.22525m  700.0000m   29.7074n  687.6264m   12.3736m 
  486.32525m  700.0000m   29.5802n  687.7678m   12.2322m 
  486.42525m  700.0000m   29.4538n  687.9092m   12.0908m 
  486.52525m  700.0000m   29.3281n  688.0506m   11.9494m 
  486.62525m  700.0000m   29.2030n  688.1921m   11.8079m 
  486.72525m  700.0000m   29.0787n  688.3335m   11.6665m 
  486.82525m  700.0000m   28.9552n  688.4749m   11.5251m 
  486.92525m  700.0000m   28.8323n  688.6163m   11.3837m 
  487.02525m  700.0000m   28.7101n  688.7577m   11.2423m 
  487.12525m  700.0000m   28.5886n  688.8992m   11.1008m 
  487.22525m  700.0000m   28.4678n  689.0406m   10.9594m 
  487.32525m  700.0000m   28.3477n  689.1820m   10.8180m 
  487.42525m  700.0000m   28.2283n  689.3234m   10.6766m 
  487.52525m  700.0000m   28.1095n  689.4649m   10.5351m 
  487.62525m  700.0000m   27.9915n  689.6063m   10.3937m 
  487.72525m  700.0000m   27.8741n  689.7477m   10.2523m 
  487.82525m  700.0000m   27.7574n  689.8891m   10.1109m 
  487.92525m  700.0000m   27.6413n  690.0305m    9.9695m 
  488.02525m  700.0000m   27.5259n  690.1720m    9.8280m 
  488.12525m  700.0000m   27.4112n  690.3134m    9.6866m 
  488.22525m  700.0000m   27.2971n  690.4548m    9.5452m 
  488.32525m  700.0000m   27.1837n  690.5962m    9.4038m 
  488.42525m  700.0000m   27.0709n  690.7376m    9.2624m 
  488.52525m  700.0000m   26.9587n  690.8791m    9.1209m 
  488.62525m  700.0000m   26.8472n  691.0205m    8.9795m 
  488.72525m  700.0000m   26.7364n  691.1619m    8.8381m 
  488.82525m  700.0000m   26.6261n  691.3033m    8.6967m 
  488.92525m  700.0000m   26.5165n  691.4448m    8.5553m 
  489.02525m  700.0000m   26.4075n  691.5862m    8.4138m 
  489.12525m  700.0000m   26.2992n  691.7276m    8.2724m 
  489.22525m  700.0000m   26.1914n  691.8690m    8.1310m 
  489.32525m  700.0000m   26.0843n  692.0104m    7.9896m 
  489.42525m  700.0000m   25.9778n  692.1519m    7.8481m 
  489.52525m  700.0000m   25.8719n  692.2933m    7.7067m 
  489.62525m  700.0000m   25.7666n  692.4347m    7.5653m 
  489.72525m  700.0000m   25.6619n  692.5761m    7.4239m 
  489.82525m  700.0000m   25.5578n  692.7175m    7.2825m 
  489.92525m  700.0000m   25.4543n  692.8590m    7.1410m 
  490.02525m  700.0000m   25.3513n  693.0004m    6.9996m 
  490.12525m  700.0000m   25.2490n  693.1418m    6.8582m 
  490.22525m  700.0000m   25.1472n  693.2832m    6.7168m 
  490.32525m  700.0000m   25.0461n  693.4246m    6.5754m 
  490.42525m  700.0000m   24.9455n  693.5661m    6.4339m 
  490.52525m  700.0000m   24.8454n  693.7075m    6.2925m 
  490.62525m  700.0000m   24.7460n  693.8489m    6.1511m 
  490.72525m  700.0000m   24.6471n  693.9903m    6.0097m 
  490.82525m  700.0000m   24.5488n  694.1318m    5.8682m 
  490.92525m  700.0000m   24.4510n  694.2732m    5.7268m 
  491.02525m  700.0000m   24.3538n  694.4146m    5.5854m 
  491.12525m  700.0000m   24.2571n  694.5560m    5.4440m 
  491.22525m  700.0000m   24.1610n  694.6974m    5.3026m 
  491.32525m  700.0000m   24.0655n  694.8389m    5.1611m 
  491.42525m  700.0000m   23.9705n  694.9803m    5.0197m 
  491.52525m  700.0000m   23.8760n  695.1217m    4.8783m 
  491.62525m  700.0000m   23.7821n  695.2631m    4.7369m 
  491.72525m  700.0000m   23.6887n  695.4045m    4.5955m 
  491.82525m  700.0000m   23.5958n  695.5460m    4.4540m 
  491.92525m  700.0000m   23.5035n  695.6874m    4.3126m 
  492.02525m  700.0000m   23.4117n  695.8288m    4.1712m 
  492.12525m  700.0000m   23.3204n  695.9702m    4.0298m 
  492.22525m  700.0000m   23.2296n  696.1117m    3.8883m 
  492.32525m  700.0000m   23.1394n  696.2531m    3.7469m 
  492.42525m  700.0000m   23.0497n  696.3945m    3.6055m 
  492.52525m  700.0000m   22.9605n  696.5359m    3.4641m 
  492.62525m  700.0000m   22.8717n  696.6773m    3.3227m 
  492.72525m  700.0000m   22.7835n  696.8188m    3.1812m 
  492.82525m  700.0000m   22.6958n  696.9602m    3.0398m 
  492.92525m  700.0000m   22.6086n  697.1016m    2.8984m 
  493.02525m  700.0000m   22.5219n  697.2430m    2.7570m 
  493.12525m  700.0000m   22.4357n  697.3844m    2.6156m 
  493.22525m  700.0000m   22.3500n  697.5259m    2.4741m 
  493.32525m  700.0000m   22.2648n  697.6673m    2.3327m 
  493.42525m  700.0000m   22.1800n  697.8087m    2.1913m 
  493.52525m  700.0000m   22.0958n  697.9501m    2.0499m 
  493.62525m  700.0000m   22.0120n  698.0915m    1.9085m 
  493.72525m  700.0000m   21.9287n  698.2330m    1.7670m 
  493.82525m  700.0000m   21.8459n  698.3744m    1.6256m 
  493.92525m  700.0000m   21.7635n  698.5158m    1.4842m 
  494.02525m  700.0000m   21.6816n  698.6572m    1.3428m 
  494.12525m  700.0000m   21.6002n  698.7987m    1.2013m 
  494.22525m  700.0000m   21.5192n  698.9401m    1.0599m 
  494.32525m  700.0000m   21.4387n  699.0815m  918.5033u 
  494.42525m  700.0000m   21.3587n  699.2229m  777.0821u 
  494.52525m  700.0000m   21.2791n  699.3643m  635.6608u 
  494.62525m  700.0000m   21.2000n  699.5058m  494.2395u 
  494.72525m  700.0000m   21.1213n  699.6472m  352.8182u 
  494.82525m  700.0000m   21.0431n  699.7886m  211.3970u 
  494.92525m  700.0000m   20.9653n  699.9300m   69.9757u 
y
 max_1= 434.8545m    at=-253.6747m
             from=-494.9747m    to= 494.9253m
 max_2= 434.8544m    at= 253.6253m
             from=-494.9747m    to= 494.9253m
 snm= 307.4885m
1****** HSPICE -- Q-2020.03-SP2-2 linux64 (Nov  1 2020) ******                  
 ******  
 .title noise margin in hold operation

 ****** operating point information tnom=  25.000 temp=  25.000 ******
 ****** operating point status is all       simulation time is     0.     
    node    =voltage      node    =voltage      node    =voltage

 +0:bl      = 700.0000m 0:blb     = 700.0000m 0:gl      = 354.8167m
 +0:gr      = 354.8167m 0:q       = 354.8167m 0:qb      = 354.8167m
 +0:u       =   0.      0:v1      = 501.7866m 0:v2      = 501.7866m
 +0:vdd     = 700.0000m 0:wl      =   0.      0:x       = 663.3604m


 **** voltage sources

 subckt                                   
 element  0:vu       0:vvdd     0:vwl     
  volts      0.       700.0000m    0.     
  current    0.        -1.8462u  639.8735f
  power      0.         1.2923u    0.     

     total voltage source power dissipation=    1.2923u       watts



 **** voltage-controlled voltage sources


 subckt                                              
 element  0:eli      0:ev1      0:eri      0:ev2     
  volts    354.8167m  501.7866m  354.8167m  501.7866m
  current   -2.2390f    0.        -2.2390f    0.     





 **** mosfets


 subckt                                                                    
 element  0:mpr      0:mnr      0:mpl      0:mnl      0:mnpr     0:mnpl    
 model    0:pmos_sra 0:nmos_sra 0:pmos_sra 0:nmos_sra 0:nmos_sra 0:nmos_sra
 region   Saturation Subth      Saturation Subth      Cutoff     Cutoff    
  id      -923.1070n  923.1069n -923.1070n  923.1069n    1.7887f    1.7887f
  ibs        0.         0.         0.         0.         0.         0.     
  ibd        0.         0.         0.         0.         0.         0.     
  vgs     -345.1833m  354.8167m -345.1833m  354.8167m -354.8167m -354.8167m
  vds     -345.1833m  354.8167m -345.1833m  354.8167m  345.1833m  345.1833m
  vbs      -36.6396m  663.3604m  -36.6396m  663.3604m  308.5437m  308.5437m
  vth     -342.2452m  410.8847m -342.2452m  410.8847m  410.9471m  410.9471m
  vdsat    -98.9022m   76.8529m  -98.9022m   76.8529m   71.0368m   71.0368m
  vod       -2.9380m  -56.0680m   -2.9380m  -56.0680m -765.7638m -765.7638m
  beta       2.5635m    6.7760m    2.5635m    6.7760m    6.7760m    6.7760m
  gam eff    0.         0.         0.         0.         0.         0.     
  gm        21.8945u   29.8648u   21.8945u   29.8648u  2.176e-20  2.176e-20
  gds      583.3605n  493.3089n  583.3605n  493.3089n  418.6120a  418.6120a
  gmb        8.7905p   22.7673p    8.7905p   22.7673p  2.564e-20  2.564e-20
  cdtot     10.7930a   21.7421a   10.7930a   21.7421a   21.7500a   21.7500a
  cgtot     36.8280a   54.0082a   36.8280a   54.0082a   43.5000a   43.5000a
  cstot     20.6889a   28.8774a   20.6889a   28.8774a   21.7500a   21.7500a
  cbtot      0.         0.         0.         0.         0.         0.     
  cgs       26.2176a   32.3109a   26.2176a   32.3109a   21.7500a   21.7500a
  cgd       10.6104a   21.6973a   10.6104a   21.6973a   21.7500a   21.7500a




          ***** job concluded
 ******  
 .title noise margin in hold operation

 ****** job statistics summary tnom=  25.000 temp=  25.000 ******
  
 ******  Machine Information  ******
 CPU:
 model name	: AMD EPYC 7713 64-Core Processor
 cpu MHz	: 2000.000
  
 OS:
 Linux version 3.10.0-1160.88.1.el7.x86_64 (mockbuild@kbuilder.bsys.centos.org) (gcc version 4.8.5 20150623 (Red Hat 4.8.5-44) (GCC) ) #1 SMP Tue Mar 7 15:41:52 UTC 2023


  ******  HSPICE Threads Information  ******

  Command Line Threads Count :     1
  Available CPU Count        :   256
  Actual Threads Count       :     1


  ******  Circuit Statistics  ******
  # nodes       =      13 # elements   =      15
  # resistors   =       0 # capacitors =       2 # inductors   =       0
  # mutual_inds =       0 # vccs       =       0 # vcvs        =       4
  # cccs        =       0 # ccvs       =       0 # volt_srcs   =       3
  # curr_srcs   =       0 # diodes     =       0 # bjts        =       0
  # jfets       =       0 # mosfets    =       6 # U elements  =       0
  # T elements  =       0 # W elements =       0 # B elements  =       0
  # S elements  =       0 # P elements =       0 # va device   =       0
  # vector_srcs =       0 # N elements =       0


  ******  Runtime Statistics (seconds)  ******

  analysis           time    # points   tot. iter  conv.iter
  op point           0.01           1           9
  dc sweep           0.75        9900       29713
  readin             0.01
  errchk             0.00
  setup              0.00
  output             0.00


           peak memory used        406.02 megabytes
           total cpu time            0.83 seconds
           total elapsed time        1.10 seconds
           job started at     13:40:36 03/23/2025
           job ended   at     13:40:37 03/23/2025
           job total runtime         1.10 seconds


 lic: Release hspice token(s) 
 lic: total license checkout elapse time:        0.26(s)
