 ****** HSPICE -- Q-2020.03-SP2-2 linux64 (Nov  1 2020) ******                  
  Copyright (c) 1986 - 2025 by Synopsys, Inc. All Rights Reserved.              
  This software and the associated documentation are proprietary
  to Synopsys, Inc. This software may only be used in accordance
  with the terms and conditions of a written license agreement with
  Synopsys, Inc. All other use, reproduction, or distribution of
  this software is strictly prohibited.
  Input File: SRAM_RSNM_FF.sp                                                   
  Command line options: /RAID2/cad/synopsys/hspice/2020.03-sp2-2/hspice/linux64/hspice -i SRAM_RSNM_FF.sp -o SRAM_RSNM_FF.lis
  Start time: Sun Mar 23 14:00:22 2025
 lic:  
 lic: FLEXlm: SDK_12.6 
 lic: USER:   es25MCS042           HOSTNAME: ee28 
 lic: HOSTID: "d85ed3efc19a"       PID:      144206 
 lic: Using FLEXlm license file: 
 lic: 26585@lshc 
 lic: Checkout 1 hspice 
 lic: License/Maintenance for hspice will expire on 14-may-2025/2024.09 
 lic: 184(in_use)/1100(total) FLOATING license(s) on SERVER 26585@lshc 
 lic:   
  
      
             
 Warning:'Floating bulk' occurs 1 times
 Summary of floating bulk:
 -----------------------
 |Node      |Device    |
 |----------+----------|
 |x         |mpr       |
 -----------------------
              
 *****************************************************************
 ******  option summary
 ******
 runlvl  = 3         bypass  = 2.0000    
 ******
 .title noise margin in read operation

 ****** dc transfer curves tnom=  25.000 temp=  25.000 ******
x

 volt         voltage    voltage    voltage    voltage   
             q          qb         gl         gr         
 -494.97475m  109.8281m  700.0000m  -16.9990n  809.8281m 
 -494.87475m  109.8379m  700.0000m  141.4043u  809.6965m 
 -494.77475m  109.8477m  700.0000m  282.8256u  809.5648m 
 -494.67475m  109.8575m  700.0000m  424.2468u  809.4332m 
 -494.57475m  109.8673m  700.0000m  565.6681u  809.3016m 
 -494.47475m  109.8771m  700.0000m  707.0894u  809.1700m 
 -494.37475m  109.8869m  700.0000m  848.5106u  809.0384m 
 -494.27475m  109.8968m  700.0000m  989.9319u  808.9068m 
 -494.17475m  109.9066m  700.0000m    1.1314m  808.7753m 
 -494.07475m  109.9165m  700.0000m    1.2728m  808.6437m 
 -493.97475m  109.9263m  700.0000m    1.4142m  808.5121m 
 -493.87475m  109.9362m  700.0000m    1.5556m  808.3806m 
 -493.77475m  109.9461m  700.0000m    1.6970m  808.2490m 
 -493.67475m  109.9560m  700.0000m    1.8385m  808.1175m 
 -493.57475m  109.9659m  700.0000m    1.9799m  807.9860m 
 -493.47475m  109.9757m  700.0000m    2.1213m  807.8544m 
 -493.37475m  109.9857m  700.0000m    2.2627m  807.7229m 
 -493.27475m  109.9956m  700.0000m    2.4041m  807.5914m 
 -493.17475m  110.0055m  700.0000m    2.5456m  807.4599m 
 -493.07475m  110.0154m  700.0000m    2.6870m  807.3284m 
 -492.97475m  110.0253m  700.0000m    2.8284m  807.1969m 
 -492.87475m  110.0353m  700.0000m    2.9698m  807.0654m 
 -492.77475m  110.0452m  700.0000m    3.1113m  806.9340m 
 -492.67475m  110.0552m  700.0000m    3.2527m  806.8025m 
 -492.57475m  110.0652m  700.0000m    3.3941m  806.6710m 
 -492.47475m  110.0751m  700.0000m    3.5355m  806.5396m 
 -492.37475m  110.0851m  700.0000m    3.6769m  806.4081m 
 -492.27475m  110.0951m  700.0000m    3.8184m  806.2767m 
 -492.17475m  110.1051m  700.0000m    3.9598m  806.1453m 
 -492.07475m  110.1151m  700.0000m    4.1012m  806.0139m 
 -491.97475m  110.1251m  700.0000m    4.2426m  805.8825m 
 -491.87475m  110.1351m  700.0000m    4.3840m  805.7511m 
 -491.77475m  110.1451m  700.0000m    4.5255m  805.6197m 
 -491.67475m  110.1552m  700.0000m    4.6669m  805.4883m 
 -491.57475m  110.1652m  700.0000m    4.8083m  805.3569m 
 -491.47475m  110.1753m  700.0000m    4.9497m  805.2255m 
 -491.37475m  110.1853m  700.0000m    5.0911m  805.0941m 
 -491.27475m  110.1954m  700.0000m    5.2326m  804.9628m 
 -491.17475m  110.2054m  700.0000m    5.3740m  804.8314m 
 -491.07475m  110.2155m  700.0000m    5.5154m  804.7001m 
 -490.97475m  110.2256m  700.0000m    5.6568m  804.5687m 
 -490.87475m  110.2357m  700.0000m    5.7983m  804.4374m 
 -490.77475m  110.2458m  700.0000m    5.9397m  804.3061m 
 -490.67475m  110.2559m  700.0000m    6.0811m  804.1748m 
 -490.57475m  110.2660m  700.0000m    6.2225m  804.0435m 
 -490.47475m  110.2761m  700.0000m    6.3639m  803.9122m 
 -490.37475m  110.2863m  700.0000m    6.5054m  803.7809m 
 -490.27475m  110.2964m  700.0000m    6.6468m  803.6496m 
 -490.17475m  110.3066m  700.0000m    6.7882m  803.5183m 
 -490.07475m  110.3167m  700.0000m    6.9296m  803.3871m 
 -489.97475m  110.3269m  700.0000m    7.0710m  803.2558m 
 -489.87475m  110.3370m  700.0000m    7.2125m  803.1245m 
 -489.77475m  110.3472m  700.0000m    7.3539m  802.9933m 
 -489.67475m  110.3574m  700.0000m    7.4953m  802.8621m 
 -489.57475m  110.3676m  700.0000m    7.6367m  802.7308m 
 -489.47475m  110.3778m  700.0000m    7.7782m  802.5996m 
 -489.37475m  110.3880m  700.0000m    7.9196m  802.4684m 
 -489.27475m  110.3982m  700.0000m    8.0610m  802.3372m 
 -489.17475m  110.4084m  700.0000m    8.2024m  802.2060m 
 -489.07475m  110.4187m  700.0000m    8.3438m  802.0748m 
 -488.97475m  110.4289m  700.0000m    8.4853m  801.9436m 
 -488.87475m  110.4392m  700.0000m    8.6267m  801.8124m 
 -488.77475m  110.4494m  700.0000m    8.7681m  801.6813m 
 -488.67475m  110.4597m  700.0000m    8.9095m  801.5501m 
 -488.57475m  110.4699m  700.0000m    9.0509m  801.4190m 
 -488.47475m  110.4802m  700.0000m    9.1924m  801.2878m 
 -488.37475m  110.4905m  700.0000m    9.3338m  801.1567m 
 -488.27475m  110.5008m  700.0000m    9.4752m  801.0256m 
 -488.17475m  110.5111m  700.0000m    9.6166m  800.8944m 
 -488.07475m  110.5214m  700.0000m    9.7580m  800.7633m 
 -487.97475m  110.5317m  700.0000m    9.8995m  800.6322m 
 -487.87475m  110.5420m  700.0000m   10.0409m  800.5011m 
 -487.77475m  110.5524m  700.0000m   10.1823m  800.3700m 
 -487.67475m  110.5627m  700.0000m   10.3237m  800.2390m 
 -487.57475m  110.5731m  700.0000m   10.4652m  800.1079m 
 -487.47475m  110.5834m  700.0000m   10.6066m  799.9768m 
 -487.37475m  110.5938m  700.0000m   10.7480m  799.8458m 
 -487.27475m  110.6042m  700.0000m   10.8894m  799.7147m 
 -487.17475m  110.6145m  700.0000m   11.0308m  799.5837m 
 -487.07475m  110.6249m  700.0000m   11.1723m  799.4526m 
 -486.97475m  110.6353m  700.0000m   11.3137m  799.3216m 
 -486.87475m  110.6457m  700.0000m   11.4551m  799.1906m 
 -486.77475m  110.6561m  700.0000m   11.5965m  799.0596m 
 -486.67475m  110.6665m  700.0000m   11.7379m  798.9286m 
 -486.57475m  110.6770m  700.0000m   11.8794m  798.7976m 
 -486.47475m  110.6874m  700.0000m   12.0208m  798.6666m 
 -486.37475m  110.6978m  700.0000m   12.1622m  798.5356m 
 -486.27475m  110.7083m  700.0000m   12.3036m  798.4046m 
 -486.17475m  110.7188m  700.0000m   12.4451m  798.2737m 
 -486.07475m  110.7292m  700.0000m   12.5865m  798.1427m 
 -485.97475m  110.7397m  700.0000m   12.7279m  798.0118m 
 -485.87475m  110.7502m  700.0000m   12.8693m  797.8808m 
 -485.77475m  110.7607m  700.0000m   13.0107m  797.7499m 
 -485.67475m  110.7712m  700.0000m   13.1522m  797.6190m 
 -485.57475m  110.7817m  700.0000m   13.2936m  797.4881m 
 -485.47475m  110.7922m  700.0000m   13.4350m  797.3572m 
 -485.37475m  110.8027m  700.0000m   13.5764m  797.2263m 
 -485.27475m  110.8132m  700.0000m   13.7178m  797.0954m 
 -485.17475m  110.8238m  700.0000m   13.8593m  796.9645m 
 -485.07475m  110.8343m  700.0000m   14.0007m  796.8336m 
 -484.97475m  110.8449m  700.0000m   14.1421m  796.7027m 
 -484.87475m  110.8554m  700.0000m   14.2835m  796.5719m 
 -484.77475m  110.8660m  700.0000m   14.4250m  796.4410m 
 -484.67475m  110.8766m  700.0000m   14.5664m  796.3102m 
 -484.57475m  110.8872m  700.0000m   14.7078m  796.1794m 
 -484.47475m  110.8978m  700.0000m   14.8492m  796.0485m 
 -484.37475m  110.9084m  700.0000m   14.9906m  795.9177m 
 -484.27475m  110.9190m  700.0000m   15.1321m  795.7869m 
 -484.17475m  110.9296m  700.0000m   15.2735m  795.6561m 
 -484.07475m  110.9402m  700.0000m   15.4149m  795.5253m 
 -483.97475m  110.9509m  700.0000m   15.5563m  795.3945m 
 -483.87475m  110.9615m  700.0000m   15.6977m  795.2637m 
 -483.77475m  110.9722m  700.0000m   15.8392m  795.1330m 
 -483.67475m  110.9828m  700.0000m   15.9806m  795.0022m 
 -483.57475m  110.9935m  700.0000m   16.1220m  794.8715m 
 -483.47475m  111.0042m  700.0000m   16.2634m  794.7407m 
 -483.37475m  111.0149m  700.0000m   16.4048m  794.6100m 
 -483.27475m  111.0255m  700.0000m   16.5463m  794.4792m 
 -483.17475m  111.0362m  700.0000m   16.6877m  794.3485m 
 -483.07475m  111.0470m  700.0000m   16.8291m  794.2178m 
 -482.97475m  111.0577m  700.0000m   16.9705m  794.0871m 
 -482.87475m  111.0684m  700.0000m   17.1120m  793.9564m 
 -482.77475m  111.0791m  700.0000m   17.2534m  793.8257m 
 -482.67475m  111.0899m  700.0000m   17.3948m  793.6950m 
 -482.57475m  111.1006m  700.0000m   17.5362m  793.5644m 
 -482.47475m  111.1114m  700.0000m   17.6776m  793.4337m 
 -482.37475m  111.1221m  700.0000m   17.8191m  793.3031m 
 -482.27475m  111.1329m  700.0000m   17.9605m  793.1724m 
 -482.17475m  111.1437m  700.0000m   18.1019m  793.0418m 
 -482.07475m  111.1545m  700.0000m   18.2433m  792.9111m 
 -481.97475m  111.1653m  700.0000m   18.3847m  792.7805m 
 -481.87475m  111.1761m  700.0000m   18.5262m  792.6499m 
 -481.77475m  111.1869m  700.0000m   18.6676m  792.5193m 
 -481.67475m  111.1977m  700.0000m   18.8090m  792.3887m 
 -481.57475m  111.2086m  700.0000m   18.9504m  792.2581m 
 -481.47475m  111.2194m  700.0000m   19.0918m  792.1275m 
 -481.37475m  111.2303m  700.0000m   19.2333m  791.9970m 
 -481.27475m  111.2411m  700.0000m   19.3747m  791.8664m 
 -481.17475m  111.2520m  700.0000m   19.5161m  791.7358m 
 -481.07475m  111.2629m  700.0000m   19.6575m  791.6053m 
 -480.97475m  111.2737m  700.0000m   19.7990m  791.4747m 
 -480.87475m  111.2846m  700.0000m   19.9404m  791.3442m 
 -480.77475m  111.2955m  700.0000m   20.0818m  791.2137m 
 -480.67475m  111.3064m  700.0000m   20.2232m  791.0832m 
 -480.57475m  111.3173m  700.0000m   20.3646m  790.9527m 
 -480.47475m  111.3283m  700.0000m   20.5061m  790.8222m 
 -480.37475m  111.3392m  700.0000m   20.6475m  790.6917m 
 -480.27475m  111.3501m  700.0000m   20.7889m  790.5612m 
 -480.17475m  111.3611m  700.0000m   20.9303m  790.4307m 
 -480.07475m  111.3720m  700.0000m   21.0717m  790.3003m 
 -479.97475m  111.3830m  700.0000m   21.2132m  790.1698m 
 -479.87475m  111.3940m  700.0000m   21.3546m  790.0394m 
 -479.77475m  111.4050m  700.0000m   21.4960m  789.9089m 
 -479.67475m  111.4160m  700.0000m   21.6374m  789.7785m 
 -479.57475m  111.4270m  700.0000m   21.7789m  789.6481m 
 -479.47475m  111.4380m  700.0000m   21.9203m  789.5177m 
 -479.37475m  111.4490m  700.0000m   22.0617m  789.3873m 
 -479.27475m  111.4600m  700.0000m   22.2031m  789.2569m 
 -479.17475m  111.4710m  700.0000m   22.3445m  789.1265m 
 -479.07475m  111.4821m  700.0000m   22.4860m  788.9961m 
 -478.97475m  111.4931m  700.0000m   22.6274m  788.8657m 
 -478.87475m  111.5042m  700.0000m   22.7688m  788.7354m 
 -478.77475m  111.5153m  700.0000m   22.9102m  788.6050m 
 -478.67475m  111.5263m  700.0000m   23.0516m  788.4747m 
 -478.57475m  111.5374m  700.0000m   23.1931m  788.3443m 
 -478.47475m  111.5485m  700.0000m   23.3345m  788.2140m 
 -478.37475m  111.5596m  700.0000m   23.4759m  788.0837m 
 -478.27475m  111.5707m  700.0000m   23.6173m  787.9534m 
 -478.17475m  111.5818m  700.0000m   23.7587m  787.8231m 
 -478.07475m  111.5930m  700.0000m   23.9002m  787.6928m 
 -477.97475m  111.6041m  700.0000m   24.0416m  787.5625m 
 -477.87475m  111.6153m  700.0000m   24.1830m  787.4322m 
 -477.77475m  111.6264m  700.0000m   24.3244m  787.3019m 
 -477.67475m  111.6376m  700.0000m   24.4659m  787.1717m 
 -477.57475m  111.6487m  700.0000m   24.6073m  787.0414m 
 -477.47475m  111.6599m  700.0000m   24.7487m  786.9112m 
 -477.37475m  111.6711m  700.0000m   24.8901m  786.7809m 
 -477.27475m  111.6823m  700.0000m   25.0315m  786.6507m 
 -477.17475m  111.6935m  700.0000m   25.1730m  786.5205m 
 -477.07475m  111.7047m  700.0000m   25.3144m  786.3903m 
 -476.97475m  111.7159m  700.0000m   25.4558m  786.2601m 
 -476.87475m  111.7272m  700.0000m   25.5972m  786.1299m 
 -476.77475m  111.7384m  700.0000m   25.7386m  785.9997m 
 -476.67475m  111.7497m  700.0000m   25.8801m  785.8696m 
 -476.57475m  111.7609m  700.0000m   26.0215m  785.7394m 
 -476.47475m  111.7722m  700.0000m   26.1629m  785.6092m 
 -476.37475m  111.7835m  700.0000m   26.3043m  785.4791m 
 -476.27475m  111.7947m  700.0000m   26.4457m  785.3489m 
 -476.17475m  111.8060m  700.0000m   26.5872m  785.2188m 
 -476.07475m  111.8173m  700.0000m   26.7286m  785.0887m 
 -475.97475m  111.8286m  700.0000m   26.8700m  784.9586m 
 -475.87475m  111.8400m  700.0000m   27.0114m  784.8285m 
 -475.77475m  111.8513m  700.0000m   27.1529m  784.6984m 
 -475.67475m  111.8626m  700.0000m   27.2943m  784.5683m 
 -475.57475m  111.8740m  700.0000m   27.4357m  784.4382m 
 -475.47475m  111.8853m  700.0000m   27.5771m  784.3082m 
 -475.37475m  111.8967m  700.0000m   27.7185m  784.1781m 
 -475.27475m  111.9080m  700.0000m   27.8600m  784.0480m 
 -475.17475m  111.9194m  700.0000m   28.0014m  783.9180m 
 -475.07475m  111.9308m  700.0000m   28.1428m  783.7880m 
 -474.97475m  111.9422m  700.0000m   28.2842m  783.6579m 
 -474.87475m  111.9536m  700.0000m   28.4256m  783.5279m 
 -474.77475m  111.9650m  700.0000m   28.5671m  783.3979m 
 -474.67475m  111.9765m  700.0000m   28.7085m  783.2679m 
 -474.57475m  111.9879m  700.0000m   28.8499m  783.1379m 
 -474.47475m  111.9993m  700.0000m   28.9913m  783.0079m 
 -474.37475m  112.0108m  700.0000m   29.1328m  782.8780m 
 -474.27475m  112.0222m  700.0000m   29.2742m  782.7480m 
 -474.17475m  112.0337m  700.0000m   29.4156m  782.6181m 
 -474.07475m  112.0452m  700.0000m   29.5570m  782.4881m 
 -473.97475m  112.0567m  700.0000m   29.6984m  782.3582m 
 -473.87475m  112.0682m  700.0000m   29.8399m  782.2283m 
 -473.77475m  112.0797m  699.9999m   29.9813m  782.0983m 
 -473.67475m  112.0912m  699.9999m   30.1227m  781.9684m 
 -473.57475m  112.1027m  699.9999m   30.2641m  781.8385m 
 -473.47475m  112.1142m  699.9999m   30.4055m  781.7086m 
 -473.37475m  112.1258m  699.9999m   30.5470m  781.5788m 
 -473.27475m  112.1373m  699.9999m   30.6884m  781.4489m 
 -473.17475m  112.1489m  699.9999m   30.8298m  781.3190m 
 -473.07475m  112.1604m  699.9999m   30.9712m  781.1892m 
 -472.97475m  112.1720m  699.9999m   31.1126m  781.0593m 
 -472.87475m  112.1836m  699.9999m   31.2541m  780.9295m 
 -472.77475m  112.1952m  699.9999m   31.3955m  780.7996m 
 -472.67475m  112.2068m  699.9999m   31.5369m  780.6698m 
 -472.57475m  112.2184m  699.9999m   31.6783m  780.5400m 
 -472.47475m  112.2300m  699.9999m   31.8198m  780.4102m 
 -472.37475m  112.2416m  699.9999m   31.9612m  780.2804m 
 -472.27475m  112.2533m  699.9999m   32.1026m  780.1506m 
 -472.17475m  112.2649m  699.9999m   32.2440m  780.0209m 
 -472.07475m  112.2766m  699.9999m   32.3854m  779.8911m 
 -471.97475m  112.2883m  699.9999m   32.5269m  779.7613m 
 -471.87475m  112.2999m  699.9999m   32.6683m  779.6316m 
 -471.77475m  112.3116m  699.9999m   32.8097m  779.5019m 
 -471.67475m  112.3233m  699.9999m   32.9511m  779.3721m 
 -471.57475m  112.3350m  699.9999m   33.0925m  779.2424m 
 -471.47475m  112.3467m  699.9999m   33.2340m  779.1127m 
 -471.37475m  112.3584m  699.9999m   33.3754m  778.9830m 
 -471.27475m  112.3702m  699.9999m   33.5168m  778.8533m 
 -471.17475m  112.3819m  699.9999m   33.6582m  778.7236m 
 -471.07475m  112.3936m  699.9999m   33.7996m  778.5939m 
 -470.97475m  112.4054m  699.9999m   33.9411m  778.4643m 
 -470.87475m  112.4172m  699.9999m   34.0825m  778.3346m 
 -470.77475m  112.4289m  699.9999m   34.2239m  778.2050m 
 -470.67475m  112.4407m  699.9999m   34.3653m  778.0753m 
 -470.57475m  112.4525m  699.9999m   34.5068m  777.9457m 
 -470.47475m  112.4643m  699.9999m   34.6482m  777.8161m 
 -470.37475m  112.4761m  699.9999m   34.7896m  777.6865m 
 -470.27475m  112.4879m  699.9999m   34.9310m  777.5569m 
 -470.17475m  112.4998m  699.9999m   35.0724m  777.4273m 
 -470.07475m  112.5116m  699.9999m   35.2139m  777.2977m 
 -469.97475m  112.5235m  699.9999m   35.3553m  777.1681m 
 -469.87475m  112.5353m  699.9999m   35.4967m  777.0386m 
 -469.77475m  112.5472m  699.9999m   35.6381m  776.9090m 
 -469.67475m  112.5591m  699.9999m   35.7795m  776.7795m 
 -469.57475m  112.5709m  699.9999m   35.9210m  776.6499m 
 -469.47475m  112.5828m  699.9999m   36.0624m  776.5204m 
 -469.37475m  112.5947m  699.9999m   36.2038m  776.3909m 
 -469.27475m  112.6067m  699.9999m   36.3452m  776.2614m 
 -469.17475m  112.6186m  699.9999m   36.4866m  776.1319m 
 -469.07475m  112.6305m  699.9999m   36.6281m  776.0024m 
 -468.97475m  112.6425m  699.9999m   36.7695m  775.8729m 
 -468.87475m  112.6544m  699.9999m   36.9109m  775.7434m 
 -468.77475m  112.6664m  699.9999m   37.0523m  775.6140m 
 -468.67475m  112.6783m  699.9999m   37.1938m  775.4845m 
 -468.57475m  112.6903m  699.9999m   37.3352m  775.3551m 
 -468.47475m  112.7023m  699.9999m   37.4766m  775.2256m 
 -468.37475m  112.7143m  699.9999m   37.6180m  775.0962m 
 -468.27475m  112.7263m  699.9999m   37.7594m  774.9668m 
 -468.17475m  112.7383m  699.9999m   37.9009m  774.8374m 
 -468.07475m  112.7503m  699.9999m   38.0423m  774.7080m 
 -467.97475m  112.7624m  699.9999m   38.1837m  774.5786m 
 -467.87475m  112.7744m  699.9999m   38.3251m  774.4492m 
 -467.77475m  112.7865m  699.9999m   38.4665m  774.3199m 
 -467.67475m  112.7985m  699.9999m   38.6080m  774.1905m 
 -467.57475m  112.8106m  699.9999m   38.7494m  774.0611m 
 -467.47475m  112.8227m  699.9999m   38.8908m  773.9318m 
 -467.37475m  112.8348m  699.9999m   39.0322m  773.8025m 
 -467.27475m  112.8469m  699.9999m   39.1736m  773.6732m 
 -467.17475m  112.8590m  699.9999m   39.3151m  773.5438m 
 -467.07475m  112.8711m  699.9999m   39.4565m  773.4145m 
 -466.97475m  112.8832m  699.9999m   39.5979m  773.2853m 
 -466.87475m  112.8954m  699.9999m   39.7393m  773.1560m 
 -466.77475m  112.9075m  699.9999m   39.8807m  773.0267m 
 -466.67475m  112.9197m  699.9999m   40.0222m  772.8974m 
 -466.57475m  112.9318m  699.9999m   40.1636m  772.7682m 
 -466.47475m  112.9440m  699.9999m   40.3050m  772.6389m 
 -466.37475m  112.9562m  699.9999m   40.4464m  772.5097m 
 -466.27475m  112.9684m  699.9999m   40.5879m  772.3805m 
 -466.17475m  112.9806m  699.9999m   40.7293m  772.2513m 
 -466.07475m  112.9928m  699.9999m   40.8707m  772.1220m 
 -465.97475m  113.0050m  699.9999m   41.0121m  771.9928m 
 -465.87475m  113.0173m  699.9999m   41.1535m  771.8637m 
 -465.77475m  113.0295m  699.9999m   41.2950m  771.7345m 
 -465.67475m  113.0418m  699.9999m   41.4364m  771.6053m 
 -465.57475m  113.0540m  699.9999m   41.5778m  771.4762m 
 -465.47475m  113.0663m  699.9999m   41.7192m  771.3470m 
 -465.37475m  113.0786m  699.9999m   41.8606m  771.2179m 
 -465.27475m  113.0909m  699.9999m   42.0021m  771.0887m 
 -465.17475m  113.1032m  699.9999m   42.1435m  770.9596m 
 -465.07475m  113.1155m  699.9999m   42.2849m  770.8305m 
 -464.97475m  113.1278m  699.9999m   42.4263m  770.7014m 
 -464.87475m  113.1401m  699.9999m   42.5677m  770.5723m 
 -464.77475m  113.1525m  699.9999m   42.7092m  770.4432m 
 -464.67475m  113.1648m  699.9999m   42.8506m  770.3142m 
 -464.57475m  113.1772m  699.9999m   42.9920m  770.1851m 
 -464.47475m  113.1896m  699.9999m   43.1334m  770.0560m 
 -464.37475m  113.2019m  699.9999m   43.2749m  769.9270m 
 -464.27475m  113.2143m  699.9999m   43.4163m  769.7980m 
 -464.17475m  113.2267m  699.9999m   43.5577m  769.6689m 
 -464.07475m  113.2391m  699.9999m   43.6991m  769.5399m 
 -463.97475m  113.2515m  699.9999m   43.8405m  769.4109m 
 -463.87475m  113.2640m  699.9999m   43.9820m  769.2819m 
 -463.77475m  113.2764m  699.9999m   44.1234m  769.1529m 
 -463.67475m  113.2889m  699.9999m   44.2648m  769.0240m 
 -463.57475m  113.3013m  699.9999m   44.4062m  768.8950m 
 -463.47475m  113.3138m  699.9999m   44.5476m  768.7661m 
 -463.37475m  113.3263m  699.9999m   44.6891m  768.6371m 
 -463.27475m  113.3387m  699.9999m   44.8305m  768.5082m 
 -463.17475m  113.3512m  699.9999m   44.9719m  768.3792m 
 -463.07475m  113.3637m  699.9999m   45.1133m  768.2503m 
 -462.97475m  113.3763m  699.9999m   45.2547m  768.1214m 
 -462.87475m  113.3888m  699.9999m   45.3962m  767.9925m 
 -462.77475m  113.4013m  699.9999m   45.5376m  767.8636m 
 -462.67475m  113.4139m  699.9999m   45.6790m  767.7348m 
 -462.57475m  113.4264m  699.9999m   45.8204m  767.6059m 
 -462.47475m  113.4390m  699.9999m   45.9618m  767.4770m 
 -462.37475m  113.4516m  699.9999m   46.1033m  767.3482m 
 -462.27475m  113.4641m  699.9999m   46.2447m  767.2194m 
 -462.17475m  113.4767m  699.9999m   46.3861m  767.0905m 
 -462.07475m  113.4893m  699.9999m   46.5275m  766.9617m 
 -461.97475m  113.5020m  699.9999m   46.6690m  766.8329m 
 -461.87475m  113.5146m  699.9999m   46.8104m  766.7041m 
 -461.77475m  113.5272m  699.9999m   46.9518m  766.5753m 
 -461.67475m  113.5399m  699.9999m   47.0932m  766.4466m 
 -461.57475m  113.5525m  699.9999m   47.2346m  766.3178m 
 -461.47475m  113.5652m  699.9999m   47.3761m  766.1890m 
 -461.37475m  113.5779m  699.9999m   47.5175m  766.0603m 
 -461.27475m  113.5905m  699.9999m   47.6589m  765.9315m 
 -461.17475m  113.6032m  699.9999m   47.8003m  765.8028m 
 -461.07475m  113.6159m  699.9999m   47.9417m  765.6741m 
 -460.97475m  113.6287m  699.9999m   48.0832m  765.5454m 
 -460.87475m  113.6414m  699.9999m   48.2246m  765.4167m 
 -460.77475m  113.6541m  699.9999m   48.3660m  765.2880m 
 -460.67475m  113.6669m  699.9999m   48.5074m  765.1593m 
 -460.57475m  113.6796m  699.9999m   48.6488m  765.0307m 
 -460.47475m  113.6924m  699.9999m   48.7903m  764.9020m 
 -460.37475m  113.7052m  699.9999m   48.9317m  764.7734m 
 -460.27475m  113.7179m  699.9999m   49.0731m  764.6447m 
 -460.17475m  113.7307m  699.9999m   49.2145m  764.5161m 
 -460.07475m  113.7435m  699.9999m   49.3559m  764.3875m 
 -459.97475m  113.7564m  699.9999m   49.4974m  764.2589m 
 -459.87475m  113.7692m  699.9999m   49.6388m  764.1303m 
 -459.77475m  113.7820m  699.9999m   49.7802m  764.0017m 
 -459.67475m  113.7949m  699.9999m   49.9216m  763.8731m 
 -459.57475m  113.8077m  699.9999m   50.0631m  763.7446m 
 -459.47475m  113.8206m  699.9999m   50.2045m  763.6160m 
 -459.37475m  113.8335m  699.9999m   50.3459m  763.4875m 
 -459.27475m  113.8463m  699.9999m   50.4873m  763.3589m 
 -459.17475m  113.8592m  699.9999m   50.6287m  763.2304m 
 -459.07475m  113.8721m  699.9999m   50.7702m  763.1019m 
 -458.97475m  113.8851m  699.9999m   50.9116m  762.9734m 
 -458.87475m  113.8980m  699.9999m   51.0530m  762.8449m 
 -458.77475m  113.9109m  699.9999m   51.1944m  762.7164m 
 -458.67475m  113.9239m  699.9999m   51.3358m  762.5879m 
 -458.57475m  113.9368m  699.9999m   51.4773m  762.4595m 
 -458.47475m  113.9498m  699.9999m   51.6187m  762.3310m 
 -458.37475m  113.9628m  699.9999m   51.7601m  762.2026m 
 -458.27475m  113.9758m  699.9999m   51.9015m  762.0741m 
 -458.17475m  113.9888m  699.9999m   52.0429m  761.9457m 
 -458.07475m  114.0018m  699.9999m   52.1844m  761.8173m 
 -457.97475m  114.0148m  699.9999m   52.3258m  761.6889m 
 -457.87475m  114.0278m  699.9999m   52.4672m  761.5605m 
 -457.77475m  114.0409m  699.9999m   52.6086m  761.4321m 
 -457.67475m  114.0539m  699.9999m   52.7500m  761.3038m 
 -457.57475m  114.0670m  699.9999m   52.8915m  761.1754m 
 -457.47475m  114.0801m  699.9999m   53.0329m  761.0470m 
 -457.37475m  114.0931m  699.9999m   53.1743m  760.9187m 
 -457.27475m  114.1062m  699.9999m   53.3157m  760.7904m 
 -457.17475m  114.1193m  699.9999m   53.4571m  760.6621m 
 -457.07475m  114.1324m  699.9999m   53.5986m  760.5337m 
 -456.97475m  114.1456m  699.9999m   53.7400m  760.4055m 
 -456.87475m  114.1587m  699.9999m   53.8814m  760.2772m 
 -456.77475m  114.1718m  699.9999m   54.0228m  760.1489m 
 -456.67475m  114.1850m  699.9999m   54.1643m  760.0206m 
 -456.57475m  114.1982m  699.9999m   54.3057m  759.8924m 
 -456.47475m  114.2113m  699.9999m   54.4471m  759.7641m 
 -456.37475m  114.2245m  699.9999m   54.5885m  759.6359m 
 -456.27475m  114.2377m  699.9999m   54.7299m  759.5077m 
 -456.17475m  114.2509m  699.9999m   54.8714m  759.3794m 
 -456.07475m  114.2641m  699.9999m   55.0128m  759.2512m 
 -455.97475m  114.2774m  699.9999m   55.1542m  759.1230m 
 -455.87475m  114.2906m  699.9999m   55.2956m  758.9949m 
 -455.77475m  114.3039m  699.9999m   55.4370m  758.8667m 
 -455.67475m  114.3171m  699.9999m   55.5785m  758.7385m 
 -455.57475m  114.3304m  699.9999m   55.7199m  758.6104m 
 -455.47475m  114.3437m  699.9999m   55.8613m  758.4822m 
 -455.37475m  114.3570m  699.9999m   56.0027m  758.3541m 
 -455.27475m  114.3703m  699.9999m   56.1441m  758.2260m 
 -455.17475m  114.3836m  699.9999m   56.2856m  758.0979m 
 -455.07475m  114.3969m  699.9999m   56.4270m  757.9698m 
 -454.97475m  114.4102m  699.9999m   56.5684m  757.8417m 
 -454.87475m  114.4236m  699.9999m   56.7098m  757.7136m 
 -454.77475m  114.4369m  699.9999m   56.8512m  757.5856m 
 -454.67475m  114.4503m  699.9999m   56.9927m  757.4575m 
 -454.57475m  114.4637m  699.9999m   57.1341m  757.3295m 
 -454.47475m  114.4771m  699.9999m   57.2755m  757.2014m 
 -454.37475m  114.4905m  699.9999m   57.4169m  757.0734m 
 -454.27475m  114.5039m  699.9999m   57.5583m  756.9454m 
 -454.17475m  114.5173m  699.9999m   57.6998m  756.8174m 
 -454.07475m  114.5307m  699.9999m   57.8412m  756.6894m 
 -453.97475m  114.5442m  699.9999m   57.9826m  756.5614m 
 -453.87475m  114.5576m  699.9999m   58.1240m  756.4334m 
 -453.77475m  114.5711m  699.9999m   58.2654m  756.3055m 
 -453.67475m  114.5845m  699.9998m   58.4069m  756.1775m 
 -453.57475m  114.5980m  699.9998m   58.5483m  756.0496m 
 -453.47475m  114.6115m  699.9998m   58.6897m  755.9217m 
 -453.37475m  114.6250m  699.9998m   58.8311m  755.7937m 
 -453.27475m  114.6385m  699.9998m   58.9726m  755.6658m 
 -453.17475m  114.6521m  699.9998m   59.1140m  755.5379m 
 -453.07475m  114.6656m  699.9998m   59.2554m  755.4101m 
 -452.97475m  114.6792m  699.9998m   59.3968m  755.2822m 
 -452.87475m  114.6927m  699.9998m   59.5382m  755.1543m 
 -452.77475m  114.7063m  699.9998m   59.6797m  755.0265m 
 -452.67475m  114.7199m  699.9998m   59.8211m  754.8986m 
 -452.57475m  114.7335m  699.9998m   59.9625m  754.7708m 
 -452.47475m  114.7471m  699.9998m   60.1039m  754.6430m 
 -452.37475m  114.7607m  699.9998m   60.2453m  754.5152m 
 -452.27475m  114.7743m  699.9998m   60.3868m  754.3874m 
 -452.17475m  114.7879m  699.9998m   60.5282m  754.2596m 
 -452.07475m  114.8016m  699.9998m   60.6696m  754.1318m 
 -451.97475m  114.8152m  699.9998m   60.8110m  754.0040m 
 -451.87475m  114.8289m  699.9998m   60.9524m  753.8763m 
 -451.77475m  114.8426m  699.9998m   61.0939m  753.7486m 
 -451.67475m  114.8563m  699.9998m   61.2353m  753.6208m 
 -451.57475m  114.8700m  699.9998m   61.3767m  753.4931m 
 -451.47475m  114.8837m  699.9998m   61.5181m  753.3654m 
 -451.37475m  114.8974m  699.9998m   61.6595m  753.2377m 
 -451.27475m  114.9111m  699.9998m   61.8010m  753.1100m 
 -451.17475m  114.9249m  699.9998m   61.9424m  752.9823m 
 -451.07475m  114.9386m  699.9998m   62.0838m  752.8547m 
 -450.97475m  114.9524m  699.9998m   62.2252m  752.7270m 
 -450.87475m  114.9662m  699.9998m   62.3666m  752.5994m 
 -450.77475m  114.9800m  699.9998m   62.5081m  752.4717m 
 -450.67475m  114.9938m  699.9998m   62.6495m  752.3441m 
 -450.57475m  115.0076m  699.9998m   62.7909m  752.2165m 
 -450.47475m  115.0214m  699.9998m   62.9323m  752.0889m 
 -450.37475m  115.0352m  699.9998m   63.0737m  751.9613m 
 -450.27475m  115.0491m  699.9998m   63.2152m  751.8337m 
 -450.17475m  115.0629m  699.9998m   63.3566m  751.7062m 
 -450.07475m  115.0768m  699.9998m   63.4980m  751.5786m 
 -449.97475m  115.0907m  699.9998m   63.6394m  751.4511m 
 -449.87475m  115.1046m  699.9998m   63.7808m  751.3235m 
 -449.77475m  115.1185m  699.9998m   63.9223m  751.1960m 
 -449.67475m  115.1324m  699.9998m   64.0637m  751.0685m 
 -449.57475m  115.1463m  699.9998m   64.2051m  750.9410m 
 -449.47475m  115.1602m  699.9998m   64.3465m  750.8135m 
 -449.37475m  115.1742m  699.9998m   64.4879m  750.6860m 
 -449.27475m  115.1881m  699.9998m   64.6294m  750.5586m 
 -449.17475m  115.2021m  699.9998m   64.7708m  750.4311m 
 -449.07475m  115.2161m  699.9998m   64.9122m  750.3037m 
 -448.97475m  115.2301m  699.9998m   65.0536m  750.1762m 
 -448.87475m  115.2441m  699.9998m   65.1950m  750.0488m 
 -448.77475m  115.2581m  699.9998m   65.3365m  749.9214m 
 -448.67475m  115.2721m  699.9998m   65.4779m  749.7940m 
 -448.57475m  115.2861m  699.9998m   65.6193m  749.6666m 
 -448.47475m  115.3002m  699.9998m   65.7607m  749.5392m 
 -448.37475m  115.3142m  699.9998m   65.9022m  749.4119m 
 -448.27475m  115.3283m  699.9998m   66.0436m  749.2845m 
 -448.17475m  115.3424m  699.9998m   66.1850m  749.1572m 
 -448.07475m  115.3565m  699.9998m   66.3264m  749.0298m 
 -447.97475m  115.3706m  699.9998m   66.4678m  748.9025m 
 -447.87475m  115.3847m  699.9998m   66.6093m  748.7752m 
 -447.77475m  115.3988m  699.9998m   66.7507m  748.6479m 
 -447.67475m  115.4129m  699.9998m   66.8921m  748.5206m 
 -447.57475m  115.4271m  699.9998m   67.0335m  748.3934m 
 -447.47475m  115.4412m  699.9998m   67.1749m  748.2661m 
 -447.37475m  115.4554m  699.9998m   67.3164m  748.1388m 
 -447.27475m  115.4696m  699.9998m   67.4578m  748.0116m 
 -447.17475m  115.4838m  699.9998m   67.5992m  747.8844m 
 -447.07475m  115.4980m  699.9998m   67.7406m  747.7572m 
 -446.97475m  115.5122m  699.9998m   67.8820m  747.6299m 
 -446.87475m  115.5264m  699.9998m   68.0235m  747.5028m 
 -446.77475m  115.5407m  699.9998m   68.1649m  747.3756m 
 -446.67475m  115.5549m  699.9998m   68.3063m  747.2484m 
 -446.57475m  115.5692m  699.9998m   68.4477m  747.1212m 
 -446.47475m  115.5834m  699.9998m   68.5891m  746.9941m 
 -446.37475m  115.5977m  699.9998m   68.7306m  746.8670m 
 -446.27475m  115.6120m  699.9998m   68.8720m  746.7398m 
 -446.17475m  115.6263m  699.9998m   69.0134m  746.6127m 
 -446.07475m  115.6407m  699.9998m   69.1548m  746.4856m 
 -445.97475m  115.6550m  699.9998m   69.2962m  746.3585m 
 -445.87475m  115.6693m  699.9998m   69.4377m  746.2314m 
 -445.77475m  115.6837m  699.9998m   69.5791m  746.1044m 
 -445.67475m  115.6980m  699.9998m   69.7205m  745.9773m 
 -445.57475m  115.7124m  699.9998m   69.8619m  745.8503m 
 -445.47475m  115.7268m  699.9998m   70.0033m  745.7232m 
 -445.37475m  115.7412m  699.9998m   70.1448m  745.5962m 
 -445.27475m  115.7556m  699.9998m   70.2862m  745.4692m 
 -445.17475m  115.7700m  699.9998m   70.4276m  745.3422m 
 -445.07475m  115.7845m  699.9998m   70.5690m  745.2152m 
 -444.97475m  115.7989m  699.9998m   70.7104m  745.0882m 
 -444.87475m  115.8134m  699.9998m   70.8519m  744.9613m 
 -444.77475m  115.8278m  699.9998m   70.9933m  744.8343m 
 -444.67475m  115.8423m  699.9998m   71.1347m  744.7074m 
 -444.57475m  115.8568m  699.9998m   71.2761m  744.5805m 
 -444.47475m  115.8713m  699.9997m   71.4175m  744.4535m 
 -444.37475m  115.8858m  699.9997m   71.5590m  744.3266m 
 -444.27475m  115.9004m  699.9997m   71.7004m  744.1997m 
 -444.17475m  115.9149m  699.9997m   71.8418m  744.0729m 
 -444.07475m  115.9295m  699.9997m   71.9832m  743.9460m 
 -443.97475m  115.9440m  699.9997m   72.1246m  743.8191m 
 -443.87475m  115.9586m  699.9997m   72.2661m  743.6923m 
 -443.77475m  115.9732m  699.9997m   72.4075m  743.5654m 
 -443.67475m  115.9878m  699.9997m   72.5489m  743.4386m 
 -443.57475m  116.0024m  699.9997m   72.6903m  743.3118m 
 -443.47475m  116.0170m  699.9997m   72.8317m  743.1850m 
 -443.37475m  116.0316m  699.9997m   72.9732m  743.0582m 
 -443.27475m  116.0463m  699.9997m   73.1146m  742.9315m 
 -443.17475m  116.0610m  699.9997m   73.2560m  742.8047m 
 -443.07475m  116.0756m  699.9997m   73.3974m  742.6779m 
 -442.97475m  116.0903m  699.9997m   73.5388m  742.5512m 
 -442.87475m  116.1050m  699.9997m   73.6803m  742.4245m 
 -442.77475m  116.1197m  699.9997m   73.8217m  742.2978m 
 -442.67475m  116.1344m  699.9997m   73.9631m  742.1710m 
 -442.57475m  116.1491m  699.9997m   74.1045m  742.0444m 
 -442.47475m  116.1639m  699.9997m   74.2459m  741.9177m 
 -442.37475m  116.1786m  699.9997m   74.3874m  741.7910m 
 -442.27475m  116.1934m  699.9997m   74.5288m  741.6643m 
 -442.17475m  116.2082m  699.9997m   74.6702m  741.5377m 
 -442.07475m  116.2230m  699.9997m   74.8116m  741.4111m 
 -441.97475m  116.2378m  699.9997m   74.9530m  741.2844m 
 -441.87475m  116.2526m  699.9997m   75.0944m  741.1578m 
 -441.77475m  116.2674m  699.9997m   75.2359m  741.0312m 
 -441.67475m  116.2822m  699.9997m   75.3773m  740.9047m 
 -441.57475m  116.2971m  699.9997m   75.5187m  740.7781m 
 -441.47475m  116.3120m  699.9997m   75.6601m  740.6515m 
 -441.37475m  116.3268m  699.9997m   75.8015m  740.5250m 
 -441.27475m  116.3417m  699.9997m   75.9430m  740.3984m 
 -441.17475m  116.3566m  699.9997m   76.0844m  740.2719m 
 -441.07475m  116.3715m  699.9997m   76.2258m  740.1454m 
 -440.97475m  116.3864m  699.9997m   76.3672m  740.0189m 
 -440.87475m  116.4014m  699.9997m   76.5086m  739.8924m 
 -440.77475m  116.4163m  699.9997m   76.6501m  739.7659m 
 -440.67475m  116.4313m  699.9997m   76.7915m  739.6395m 
 -440.57475m  116.4462m  699.9997m   76.9329m  739.5130m 
 -440.47475m  116.4612m  699.9997m   77.0743m  739.3866m 
 -440.37475m  116.4762m  699.9997m   77.2157m  739.2602m 
 -440.27475m  116.4912m  699.9997m   77.3572m  739.1337m 
 -440.17475m  116.5062m  699.9997m   77.4986m  739.0073m 
 -440.07475m  116.5213m  699.9997m   77.6400m  738.8809m 
 -439.97475m  116.5363m  699.9997m   77.7814m  738.7546m 
 -439.87475m  116.5514m  699.9997m   77.9228m  738.6282m 
 -439.77475m  116.5664m  699.9997m   78.0643m  738.5018m 
 -439.67475m  116.5815m  699.9997m   78.2057m  738.3755m 
 -439.57475m  116.5966m  699.9997m   78.3471m  738.2492m 
 -439.47475m  116.6117m  699.9997m   78.4885m  738.1228m 
 -439.37475m  116.6268m  699.9997m   78.6299m  737.9965m 
 -439.27475m  116.6419m  699.9997m   78.7714m  737.8703m 
 -439.17475m  116.6571m  699.9997m   78.9128m  737.7440m 
 -439.07475m  116.6722m  699.9997m   79.0542m  737.6177m 
 -438.97475m  116.6874m  699.9997m   79.1956m  737.4914m 
 -438.87475m  116.7026m  699.9997m   79.3370m  737.3652m 
 -438.77475m  116.7178m  699.9997m   79.4785m  737.2390m 
 -438.67475m  116.7330m  699.9997m   79.6199m  737.1127m 
 -438.57475m  116.7482m  699.9996m   79.7613m  736.9865m 
 -438.47475m  116.7634m  699.9996m   79.9027m  736.8603m 
 -438.37475m  116.7787m  699.9996m   80.0441m  736.7342m 
 -438.27475m  116.7939m  699.9996m   80.1856m  736.6080m 
 -438.17475m  116.8092m  699.9996m   80.3270m  736.4818m 
 -438.07475m  116.8244m  699.9996m   80.4684m  736.3557m 
 -437.97475m  116.8397m  699.9996m   80.6098m  736.2296m 
 -437.87475m  116.8550m  699.9996m   80.7512m  736.1034m 
 -437.77475m  116.8703m  699.9996m   80.8926m  735.9773m 
 -437.67475m  116.8857m  699.9996m   81.0341m  735.8512m 
 -437.57475m  116.9010m  699.9996m   81.1755m  735.7252m 
 -437.47475m  116.9164m  699.9996m   81.3169m  735.5991m 
 -437.37475m  116.9317m  699.9996m   81.4583m  735.4730m 
 -437.27475m  116.9471m  699.9996m   81.5997m  735.3470m 
 -437.17475m  116.9625m  699.9996m   81.7412m  735.2209m 
 -437.07475m  116.9779m  699.9996m   81.8826m  735.0949m 
 -436.97475m  116.9933m  699.9996m   82.0240m  734.9689m 
 -436.87475m  117.0087m  699.9996m   82.1654m  734.8429m 
 -436.77475m  117.0242m  699.9996m   82.3068m  734.7169m 
 -436.67475m  117.0396m  699.9996m   82.4483m  734.5910m 
 -436.57475m  117.0551m  699.9996m   82.5897m  734.4650m 
 -436.47475m  117.0706m  699.9996m   82.7311m  734.3391m 
 -436.37475m  117.0860m  699.9996m   82.8725m  734.2131m 
 -436.27475m  117.1015m  699.9996m   83.0139m  734.0872m 
 -436.17475m  117.1171m  699.9996m   83.1554m  733.9613m 
 -436.07475m  117.1326m  699.9996m   83.2968m  733.8354m 
 -435.97475m  117.1481m  699.9996m   83.4382m  733.7095m 
 -435.87475m  117.1637m  699.9996m   83.5796m  733.5837m 
 -435.77475m  117.1792m  699.9996m   83.7210m  733.4578m 
 -435.67475m  117.1948m  699.9996m   83.8625m  733.3320m 
 -435.57475m  117.2104m  699.9996m   84.0039m  733.2061m 
 -435.47475m  117.2260m  699.9996m   84.1453m  733.0803m 
 -435.37475m  117.2416m  699.9996m   84.2867m  732.9545m 
 -435.27475m  117.2573m  699.9996m   84.4281m  732.8287m 
 -435.17475m  117.2729m  699.9996m   84.5695m  732.7029m 
 -435.07475m  117.2886m  699.9996m   84.7110m  732.5772m 
 -434.97475m  117.3042m  699.9996m   84.8524m  732.4514m 
 -434.87475m  117.3199m  699.9996m   84.9938m  732.3257m 
 -434.77475m  117.3356m  699.9996m   85.1352m  732.1999m 
 -434.67475m  117.3513m  699.9996m   85.2766m  732.0742m 
 -434.57475m  117.3670m  699.9996m   85.4181m  731.9485m 
 -434.47475m  117.3828m  699.9996m   85.5595m  731.8228m 
 -434.37475m  117.3985m  699.9996m   85.7009m  731.6972m 
 -434.27475m  117.4143m  699.9996m   85.8423m  731.5715m 
 -434.17475m  117.4300m  699.9996m   85.9837m  731.4458m 
 -434.07475m  117.4458m  699.9995m   86.1252m  731.3202m 
 -433.97475m  117.4616m  699.9995m   86.2666m  731.1946m 
 -433.87475m  117.4774m  699.9995m   86.4080m  731.0690m 
 -433.77475m  117.4932m  699.9995m   86.5494m  730.9434m 
 -433.67475m  117.5091m  699.9995m   86.6908m  730.8178m 
 -433.57475m  117.5249m  699.9995m   86.8322m  730.6922m 
 -433.47475m  117.5408m  699.9995m   86.9737m  730.5666m 
 -433.37475m  117.5566m  699.9995m   87.1151m  730.4411m 
 -433.27475m  117.5725m  699.9995m   87.2565m  730.3155m 
 -433.17475m  117.5884m  699.9995m   87.3979m  730.1900m 
 -433.07475m  117.6043m  699.9995m   87.5393m  730.0645m 
 -432.97475m  117.6203m  699.9995m   87.6808m  729.9390m 
 -432.87475m  117.6362m  699.9995m   87.8222m  729.8135m 
 -432.77475m  117.6522m  699.9995m   87.9636m  729.6881m 
 -432.67475m  117.6681m  699.9995m   88.1050m  729.5626m 
 -432.57475m  117.6841m  699.9995m   88.2464m  729.4372m 
 -432.47475m  117.7001m  699.9995m   88.3879m  729.3117m 
 -432.37475m  117.7161m  699.9995m   88.5293m  729.1863m 
 -432.27475m  117.7321m  699.9995m   88.6707m  729.0609m 
 -432.17475m  117.7481m  699.9995m   88.8121m  728.9355m 
 -432.07475m  117.7642m  699.9995m   88.9535m  728.8101m 
 -431.97475m  117.7802m  699.9995m   89.0949m  728.6848m 
 -431.87475m  117.7963m  699.9995m   89.2364m  728.5594m 
 -431.77475m  117.8124m  699.9995m   89.3778m  728.4341m 
 -431.67475m  117.8285m  699.9995m   89.5192m  728.3088m 
 -431.57475m  117.8446m  699.9995m   89.6606m  728.1834m 
 -431.47475m  117.8607m  699.9995m   89.8020m  728.0581m 
 -431.37475m  117.8768m  699.9995m   89.9435m  727.9329m 
 -431.27475m  117.8930m  699.9995m   90.0849m  727.8076m 
 -431.17475m  117.9091m  699.9995m   90.2263m  727.6823m 
 -431.07475m  117.9253m  699.9995m   90.3677m  727.5571m 
 -430.97475m  117.9415m  699.9995m   90.5091m  727.4318m 
 -430.87475m  117.9577m  699.9995m   90.6505m  727.3066m 
 -430.77475m  117.9739m  699.9995m   90.7920m  727.1814m 
 -430.67475m  117.9902m  699.9995m   90.9334m  727.0562m 
 -430.57475m  118.0064m  699.9994m   91.0748m  726.9310m 
 -430.47475m  118.0226m  699.9994m   91.2162m  726.8059m 
 -430.37475m  118.0389m  699.9994m   91.3576m  726.6807m 
 -430.27475m  118.0552m  699.9994m   91.4991m  726.5556m 
 -430.17475m  118.0715m  699.9994m   91.6405m  726.4305m 
 -430.07475m  118.0878m  699.9994m   91.7819m  726.3053m 
 -429.97475m  118.1041m  699.9994m   91.9233m  726.1802m 
 -429.87475m  118.1205m  699.9994m   92.0647m  726.0551m 
 -429.77475m  118.1368m  699.9994m   92.2061m  725.9301m 
 -429.67475m  118.1532m  699.9994m   92.3476m  725.8050m 
 -429.57475m  118.1695m  699.9994m   92.4890m  725.6800m 
 -429.47475m  118.1859m  699.9994m   92.6304m  725.5549m 
 -429.37475m  118.2023m  699.9994m   92.7718m  725.4299m 
 -429.27475m  118.2187m  699.9994m   92.9132m  725.3049m 
 -429.17475m  118.2352m  699.9994m   93.0547m  725.1799m 
 -429.07475m  118.2516m  699.9994m   93.1961m  725.0549m 
 -428.97475m  118.2681m  699.9994m   93.3375m  724.9300m 
 -428.87475m  118.2845m  699.9994m   93.4789m  724.8050m 
 -428.77475m  118.3010m  699.9994m   93.6203m  724.6801m 
 -428.67475m  118.3175m  699.9994m   93.7617m  724.5552m 
 -428.57475m  118.3340m  699.9994m   93.9032m  724.4302m 
 -428.47475m  118.3505m  699.9994m   94.0446m  724.3053m 
 -428.37475m  118.3671m  699.9994m   94.1860m  724.1805m 
 -428.27475m  118.3836m  699.9994m   94.3274m  724.0556m 
 -428.17475m  118.4002m  699.9994m   94.4688m  723.9307m 
 -428.07475m  118.4168m  699.9994m   94.6103m  723.8059m 
 -427.97475m  118.4334m  699.9994m   94.7517m  723.6811m 
 -427.87475m  118.4500m  699.9994m   94.8931m  723.5562m 
 -427.77475m  118.4666m  699.9994m   95.0345m  723.4314m 
 -427.67475m  118.4832m  699.9994m   95.1759m  723.3066m 
 -427.57475m  118.4999m  699.9993m   95.3173m  723.1819m 
 -427.47475m  118.5165m  699.9993m   95.4588m  723.0571m 
 -427.37475m  118.5332m  699.9993m   95.6002m  722.9324m 
 -427.27475m  118.5499m  699.9993m   95.7416m  722.8076m 
 -427.17475m  118.5666m  699.9993m   95.8830m  722.6829m 
 -427.07475m  118.5833m  699.9993m   96.0244m  722.5582m 
 -426.97475m  118.6000m  699.9993m   96.1658m  722.4335m 
 -426.87475m  118.6168m  699.9993m   96.3073m  722.3088m 
 -426.77475m  118.6335m  699.9993m   96.4487m  722.1842m 
 -426.67475m  118.6503m  699.9993m   96.5901m  722.0595m 
 -426.57475m  118.6671m  699.9993m   96.7315m  721.9349m 
 -426.47475m  118.6839m  699.9993m   96.8729m  721.8102m 
 -426.37475m  118.7007m  699.9993m   97.0144m  721.6856m 
 -426.27475m  118.7175m  699.9993m   97.1558m  721.5610m 
 -426.17475m  118.7344m  699.9993m   97.2972m  721.4365m 
 -426.07475m  118.7512m  699.9993m   97.4386m  721.3119m 
 -425.97475m  118.7681m  699.9993m   97.5800m  721.1873m 
 -425.87475m  118.7850m  699.9993m   97.7214m  721.0628m 
 -425.77475m  118.8018m  699.9993m   97.8629m  720.9383m 
 -425.67475m  118.8188m  699.9993m   98.0043m  720.8138m 
 -425.57475m  118.8357m  699.9993m   98.1457m  720.6893m 
 -425.47475m  118.8526m  699.9993m   98.2871m  720.5648m 
 -425.37475m  118.8696m  699.9993m   98.4285m  720.4403m 
 -425.27475m  118.8865m  699.9993m   98.5699m  720.3158m 
 -425.17475m  118.9035m  699.9993m   98.7114m  720.1914m 
 -425.07475m  118.9205m  699.9992m   98.8528m  720.0670m 
 -424.97475m  118.9375m  699.9992m   98.9942m  719.9426m 
 -424.87475m  118.9545m  699.9992m   99.1356m  719.8182m 
 -424.77475m  118.9716m  699.9992m   99.2770m  719.6938m 
 -424.67475m  118.9886m  699.9992m   99.4184m  719.5694m 
 -424.57475m  119.0057m  699.9992m   99.5599m  719.4450m 
 -424.47475m  119.0227m  699.9992m   99.7013m  719.3207m 
 -424.37475m  119.0398m  699.9992m   99.8427m  719.1964m 
 -424.27475m  119.0569m  699.9992m   99.9841m  719.0720m 
 -424.17475m  119.0741m  699.9992m  100.1255m  718.9477m 
 -424.07475m  119.0912m  699.9992m  100.2669m  718.8234m 
 -423.97475m  119.1083m  699.9992m  100.4084m  718.6992m 
 -423.87475m  119.1255m  699.9992m  100.5498m  718.5749m 
 -423.77475m  119.1427m  699.9992m  100.6912m  718.4507m 
 -423.67475m  119.1599m  699.9992m  100.8326m  718.3264m 
 -423.57475m  119.1771m  699.9992m  100.9740m  718.2022m 
 -423.47475m  119.1943m  699.9992m  101.1154m  718.0780m 
 -423.37475m  119.2115m  699.9992m  101.2569m  717.9538m 
 -423.27475m  119.2288m  699.9992m  101.3983m  717.8296m 
 -423.17475m  119.2460m  699.9992m  101.5397m  717.7055m 
 -423.07475m  119.2633m  699.9992m  101.6811m  717.5813m 
 -422.97475m  119.2806m  699.9992m  101.8225m  717.4572m 
 -422.87475m  119.2979m  699.9991m  101.9639m  717.3331m 
 -422.77475m  119.3152m  699.9991m  102.1054m  717.2090m 
 -422.67475m  119.3325m  699.9991m  102.2468m  717.0849m 
 -422.57475m  119.3499m  699.9991m  102.3882m  716.9608m 
 -422.47475m  119.3672m  699.9991m  102.5296m  716.8368m 
 -422.37475m  119.3846m  699.9991m  102.6710m  716.7127m 
 -422.27475m  119.4020m  699.9991m  102.8124m  716.5887m 
 -422.17475m  119.4194m  699.9991m  102.9539m  716.4647m 
 -422.07475m  119.4368m  699.9991m  103.0953m  716.3407m 
 -421.97475m  119.4543m  699.9991m  103.2367m  716.2167m 
 -421.87475m  119.4717m  699.9991m  103.3781m  716.0927m 
 -421.77475m  119.4892m  699.9991m  103.5195m  715.9687m 
 -421.67475m  119.5066m  699.9991m  103.6609m  715.8448m 
 -421.57475m  119.5241m  699.9991m  103.8024m  715.7209m 
 -421.47475m  119.5416m  699.9991m  103.9438m  715.5969m 
 -421.37475m  119.5592m  699.9991m  104.0852m  715.4730m 
 -421.27475m  119.5767m  699.9991m  104.2266m  715.3492m 
 -421.17475m  119.5942m  699.9991m  104.3680m  715.2253m 
 -421.07475m  119.6118m  699.9991m  104.5094m  715.1014m 
 -420.97475m  119.6294m  699.9990m  104.6509m  714.9776m 
 -420.87475m  119.6470m  699.9990m  104.7923m  714.8538m 
 -420.77475m  119.6646m  699.9990m  104.9337m  714.7299m 
 -420.67475m  119.6822m  699.9990m  105.0751m  714.6061m 
 -420.57475m  119.6998m  699.9990m  105.2165m  714.4823m 
 -420.47475m  119.7175m  699.9990m  105.3579m  714.3586m 
 -420.37475m  119.7352m  699.9990m  105.4993m  714.2348m 
 -420.27475m  119.7528m  699.9990m  105.6408m  714.1111m 
 -420.17475m  119.7705m  699.9990m  105.7822m  713.9874m 
 -420.07475m  119.7882m  699.9990m  105.9236m  713.8636m 
 -419.97475m  119.8060m  699.9990m  106.0650m  713.7399m 
 -419.87475m  119.8237m  699.9990m  106.2064m  713.6163m 
 -419.77475m  119.8414m  699.9990m  106.3478m  713.4926m 
 -419.67475m  119.8592m  699.9990m  106.4893m  713.3689m 
 -419.57475m  119.8770m  699.9990m  106.6307m  713.2453m 
 -419.47475m  119.8948m  699.9990m  106.7721m  713.1217m 
 -419.37475m  119.9126m  699.9990m  106.9135m  712.9981m 
 -419.27475m  119.9304m  699.9990m  107.0549m  712.8745m 
 -419.17475m  119.9483m  699.9989m  107.1963m  712.7509m 
 -419.07475m  119.9661m  699.9989m  107.3377m  712.6273m 
 -418.97475m  119.9840m  699.9989m  107.4792m  712.5038m 
 -418.87475m  120.0019m  699.9989m  107.6206m  712.3802m 
 -418.77475m  120.0198m  699.9989m  107.7620m  712.2567m 
 -418.67475m  120.0377m  699.9989m  107.9034m  712.1332m 
 -418.57475m  120.0556m  699.9989m  108.0448m  712.0097m 
 -418.47475m  120.0736m  699.9989m  108.1862m  711.8862m 
 -418.37475m  120.0915m  699.9989m  108.3277m  711.7628m 
 -418.27475m  120.1095m  699.9989m  108.4691m  711.6393m 
 -418.17475m  120.1275m  699.9989m  108.6105m  711.5159m 
 -418.07475m  120.1455m  699.9989m  108.7519m  711.3925m 
 -417.97475m  120.1635m  699.9989m  108.8933m  711.2691m 
 -417.87475m  120.1816m  699.9989m  109.0347m  711.1457m 
 -417.77475m  120.1996m  699.9989m  109.1761m  711.0223m 
 -417.67475m  120.2177m  699.9989m  109.3176m  710.8990m 
 -417.57475m  120.2358m  699.9988m  109.4590m  710.7756m 
 -417.47475m  120.2538m  699.9988m  109.6004m  710.6523m 
 -417.37475m  120.2720m  699.9988m  109.7418m  710.5290m 
 -417.27475m  120.2901m  699.9988m  109.8832m  710.4057m 
 -417.17475m  120.3082m  699.9988m  110.0246m  710.2824m 
 -417.07475m  120.3264m  699.9988m  110.1660m  710.1591m 
 -416.97475m  120.3445m  699.9988m  110.3075m  710.0359m 
 -416.87475m  120.3627m  699.9988m  110.4489m  709.9126m 
 -416.77475m  120.3809m  699.9988m  110.5903m  709.7894m 
 -416.67475m  120.3991m  699.9988m  110.7317m  709.6662m 
 -416.57475m  120.4174m  699.9988m  110.8731m  709.5430m 
 -416.47475m  120.4356m  699.9988m  111.0145m  709.4199m 
 -416.37475m  120.4539m  699.9988m  111.1559m  709.2967m 
 -416.27475m  120.4722m  699.9988m  111.2974m  709.1735m 
 -416.17475m  120.4904m  699.9987m  111.4388m  709.0504m 
 -416.07475m  120.5087m  699.9987m  111.5802m  708.9273m 
 -415.97475m  120.5271m  699.9987m  111.7216m  708.8042m 
 -415.87475m  120.5454m  699.9987m  111.8630m  708.6811m 
 -415.77475m  120.5638m  699.9987m  112.0044m  708.5580m 
 -415.67475m  120.5821m  699.9987m  112.1458m  708.4350m 
 -415.57475m  120.6005m  699.9987m  112.2873m  708.3119m 
 -415.47475m  120.6189m  699.9987m  112.4287m  708.1889m 
 -415.37475m  120.6373m  699.9987m  112.5701m  708.0659m 
 -415.27475m  120.6557m  699.9987m  112.7115m  707.9429m 
 -415.17475m  120.6742m  699.9987m  112.8529m  707.8199m 
 -415.07475m  120.6926m  699.9987m  112.9943m  707.6970m 
 -414.97475m  120.7111m  699.9987m  113.1357m  707.5740m 
 -414.87475m  120.7296m  699.9987m  113.2772m  707.4511m 
 -414.77475m  120.7481m  699.9986m  113.4186m  707.3282m 
 -414.67475m  120.7666m  699.9986m  113.5600m  707.2053m 
 -414.57475m  120.7852m  699.9986m  113.7014m  707.0824m 
 -414.47475m  120.8037m  699.9986m  113.8428m  706.9595m 
 -414.37475m  120.8223m  699.9986m  113.9842m  706.8367m 
 -414.27475m  120.8409m  699.9986m  114.1256m  706.7138m 
 -414.17475m  120.8595m  699.9986m  114.2671m  706.5910m 
 -414.07475m  120.8781m  699.9986m  114.4085m  706.4682m 
 -413.97475m  120.8967m  699.9986m  114.5499m  706.3454m 
 -413.87475m  120.9153m  699.9986m  114.6913m  706.2226m 
 -413.77475m  120.9340m  699.9986m  114.8327m  706.0999m 
 -413.67475m  120.9527m  699.9986m  114.9741m  705.9771m 
 -413.57475m  120.9714m  699.9985m  115.1155m  705.8544m 
 -413.47475m  120.9901m  699.9985m  115.2569m  705.7317m 
 -413.37475m  121.0088m  699.9985m  115.3984m  705.6090m 
 -413.27475m  121.0275m  699.9985m  115.5398m  705.4863m 
 -413.17475m  121.0463m  699.9985m  115.6812m  705.3636m 
 -413.07475m  121.0651m  699.9985m  115.8226m  705.2410m 
 -412.97475m  121.0838m  699.9985m  115.9640m  705.1183m 
 -412.87475m  121.1026m  699.9985m  116.1054m  704.9957m 
 -412.77475m  121.1215m  699.9985m  116.2468m  704.8731m 
 -412.67475m  121.1403m  699.9985m  116.3882m  704.7505m 
 -412.57475m  121.1591m  699.9985m  116.5297m  704.6279m 
 -412.47475m  121.1780m  699.9985m  116.6711m  704.5054m 
 -412.37475m  121.1969m  699.9984m  116.8125m  704.3828m 
 -412.27475m  121.2158m  699.9984m  116.9539m  704.2603m 
 -412.17475m  121.2347m  699.9984m  117.0953m  704.1378m 
 -412.07475m  121.2536m  699.9984m  117.2367m  704.0153m 
 -411.97475m  121.2725m  699.9984m  117.3781m  703.8928m 
 -411.87475m  121.2915m  699.9984m  117.5195m  703.7704m 
 -411.77475m  121.3105m  699.9984m  117.6610m  703.6479m 
 -411.67475m  121.3295m  699.9984m  117.8024m  703.5255m 
 -411.57475m  121.3485m  699.9984m  117.9438m  703.4031m 
 -411.47475m  121.3675m  699.9984m  118.0852m  703.2807m 
 -411.37475m  121.3865m  699.9984m  118.2266m  703.1583m 
 -411.27475m  121.4056m  699.9983m  118.3680m  703.0359m 
 -411.17475m  121.4246m  699.9983m  118.5094m  702.9135m 
 -411.07475m  121.4437m  699.9983m  118.6508m  702.7912m 
 -410.97475m  121.4628m  699.9983m  118.7923m  702.6689m 
 -410.87475m  121.4819m  699.9983m  118.9337m  702.5466m 
 -410.77475m  121.5011m  699.9983m  119.0751m  702.4243m 
 -410.67475m  121.5202m  699.9983m  119.2165m  702.3020m 
 -410.57475m  121.5394m  699.9983m  119.3579m  702.1798m 
 -410.47475m  121.5586m  699.9983m  119.4993m  702.0575m 
 -410.37475m  121.5778m  699.9983m  119.6407m  701.9353m 
 -410.27475m  121.5970m  699.9982m  119.7821m  701.8131m 
 -410.17475m  121.6162m  699.9982m  119.9235m  701.6909m 
 -410.07475m  121.6354m  699.9982m  120.0650m  701.5687m 
 -409.97475m  121.6547m  699.9982m  120.2064m  701.4465m 
 -409.87475m  121.6740m  699.9982m  120.3478m  701.3244m 
 -409.77475m  121.6933m  699.9982m  120.4892m  701.2023m 
 -409.67475m  121.7126m  699.9982m  120.6306m  701.0801m 
 -409.57475m  121.7319m  699.9982m  120.7720m  700.9581m 
 -409.47475m  121.7512m  699.9982m  120.9134m  700.8360m 
 -409.37475m  121.7706m  699.9982m  121.0548m  700.7139m 
 -409.27475m  121.7900m  699.9981m  121.1962m  700.5919m 
 -409.17475m  121.8093m  699.9981m  121.3377m  700.4698m 
 -409.07475m  121.8287m  699.9981m  121.4791m  700.3478m 
 -408.97475m  121.8482m  699.9981m  121.6205m  700.2258m 
 -408.87475m  121.8676m  699.9981m  121.7619m  700.1038m 
 -408.77475m  121.8871m  699.9981m  121.9033m  699.9819m 
 -408.67475m  121.9065m  699.9981m  122.0447m  699.8599m 
 -408.57475m  121.9260m  699.9981m  122.1861m  699.7380m 
 -408.47475m  121.9455m  699.9981m  122.3275m  699.6160m 
 -408.37475m  121.9650m  699.9980m  122.4689m  699.4941m 
 -408.27475m  121.9846m  699.9980m  122.6103m  699.3723m 
 -408.17475m  122.0041m  699.9980m  122.7518m  699.2504m 
 -408.07475m  122.0237m  699.9980m  122.8932m  699.1285m 
 -407.97475m  122.0433m  699.9980m  123.0346m  699.0067m 
 -407.87475m  122.0629m  699.9980m  123.1760m  698.8849m 
 -407.77475m  122.0825m  699.9980m  123.3174m  698.7631m 
 -407.67475m  122.1021m  699.9980m  123.4588m  698.6413m 
 -407.57475m  122.1218m  699.9979m  123.6002m  698.5195m 
 -407.47475m  122.1414m  699.9979m  123.7416m  698.3977m 
 -407.37475m  122.1611m  699.9979m  123.8830m  698.2760m 
 -407.27475m  122.1808m  699.9979m  124.0244m  698.1543m 
 -407.17475m  122.2005m  699.9979m  124.1659m  698.0326m 
 -407.07475m  122.2203m  699.9979m  124.3073m  697.9109m 
 -406.97475m  122.2400m  699.9979m  124.4487m  697.7892m 
 -406.87475m  122.2598m  699.9979m  124.5901m  697.6676m 
 -406.77475m  122.2795m  699.9979m  124.7315m  697.5459m 
 -406.67475m  122.2993m  699.9978m  124.8729m  697.4243m 
 -406.57475m  122.3192m  699.9978m  125.0143m  697.3027m 
 -406.47475m  122.3390m  699.9978m  125.1557m  697.1811m 
 -406.37475m  122.3588m  699.9978m  125.2971m  697.0595m 
 -406.27475m  122.3787m  699.9978m  125.4385m  696.9380m 
 -406.17475m  122.3986m  699.9978m  125.5799m  696.8164m 
 -406.07475m  122.4185m  699.9978m  125.7213m  696.6949m 
 -405.97475m  122.4384m  699.9977m  125.8628m  696.5734m 
 -405.87475m  122.4583m  699.9977m  126.0042m  696.4519m 
 -405.77475m  122.4783m  699.9977m  126.1456m  696.3304m 
 -405.67475m  122.4982m  699.9977m  126.2870m  696.2090m 
 -405.57475m  122.5182m  699.9977m  126.4284m  696.0875m 
 -405.47475m  122.5382m  699.9977m  126.5698m  695.9661m 
 -405.37475m  122.5582m  699.9977m  126.7112m  695.8447m 
 -405.27475m  122.5782m  699.9977m  126.8526m  695.7233m 
 -405.17475m  122.5983m  699.9976m  126.9940m  695.6019m 
 -405.07475m  122.6184m  699.9976m  127.1354m  695.4806m 
 -404.97475m  122.6384m  699.9976m  127.2768m  695.3592m 
 -404.87475m  122.6585m  699.9976m  127.4182m  695.2379m 
 -404.77475m  122.6786m  699.9976m  127.5597m  695.1166m 
 -404.67475m  122.6988m  699.9976m  127.7011m  694.9953m 
 -404.57475m  122.7189m  699.9976m  127.8425m  694.8740m 
 -404.47475m  122.7391m  699.9975m  127.9839m  694.7528m 
 -404.37475m  122.7593m  699.9975m  128.1253m  694.6315m 
 -404.27475m  122.7795m  699.9975m  128.2667m  694.5103m 
 -404.17475m  122.7997m  699.9975m  128.4081m  694.3891m 
 -404.07475m  122.8199m  699.9975m  128.5495m  694.2679m 
 -403.97475m  122.8402m  699.9975m  128.6909m  694.1467m 
 -403.87475m  122.8604m  699.9975m  128.8323m  694.0256m 
 -403.77475m  122.8807m  699.9974m  128.9737m  693.9044m 
 -403.67475m  122.9010m  699.9974m  129.1151m  693.7833m 
 -403.57475m  122.9213m  699.9974m  129.2565m  693.6622m 
 -403.47475m  122.9417m  699.9974m  129.3979m  693.5411m 
 -403.37475m  122.9620m  699.9974m  129.5393m  693.4201m 
 -403.27475m  122.9824m  699.9974m  129.6808m  693.2990m 
 -403.17475m  123.0028m  699.9974m  129.8222m  693.1780m 
 -403.07475m  123.0232m  699.9973m  129.9636m  693.0569m 
 -402.97475m  123.0436m  699.9973m  130.1050m  692.9359m 
 -402.87475m  123.0640m  699.9973m  130.2464m  692.8150m 
 -402.77475m  123.0845m  699.9973m  130.3878m  692.6940m 
 -402.67475m  123.1049m  699.9973m  130.5292m  692.5730m 
 -402.57475m  123.1254m  699.9973m  130.6706m  692.4521m 
 -402.47475m  123.1459m  699.9972m  130.8120m  692.3312m 
 -402.37475m  123.1665m  699.9972m  130.9534m  692.2103m 
 -402.27475m  123.1870m  699.9972m  131.0948m  692.0894m 
 -402.17475m  123.2076m  699.9972m  131.2362m  691.9685m 
 -402.07475m  123.2281m  699.9972m  131.3776m  691.8477m 
 -401.97475m  123.2487m  699.9972m  131.5190m  691.7269m 
 -401.87475m  123.2693m  699.9971m  131.6604m  691.6060m 
 -401.77475m  123.2900m  699.9971m  131.8018m  691.4853m 
 -401.67475m  123.3106m  699.9971m  131.9432m  691.3645m 
 -401.57475m  123.3313m  699.9971m  132.0846m  691.2437m 
 -401.47475m  123.3519m  699.9971m  132.2261m  691.1230m 
 -401.37475m  123.3726m  699.9971m  132.3675m  691.0022m 
 -401.27475m  123.3933m  699.9970m  132.5089m  690.8815m 
 -401.17475m  123.4141m  699.9970m  132.6503m  690.7608m 
 -401.07475m  123.4348m  699.9970m  132.7917m  690.6402m 
 -400.97475m  123.4556m  699.9970m  132.9331m  690.5195m 
 -400.87475m  123.4764m  699.9970m  133.0745m  690.3989m 
 -400.77475m  123.4972m  699.9970m  133.2159m  690.2782m 
 -400.67475m  123.5180m  699.9969m  133.3573m  690.1576m 
 -400.57475m  123.5388m  699.9969m  133.4987m  690.0370m 
 -400.47475m  123.5597m  699.9969m  133.6401m  689.9165m 
 -400.37475m  123.5805m  699.9969m  133.7815m  689.7959m 
 -400.27475m  123.6014m  699.9969m  133.9229m  689.6754m 
 -400.17475m  123.6223m  699.9969m  134.0643m  689.5549m 
 -400.07475m  123.6432m  699.9968m  134.2057m  689.4344m 
 -399.97475m  123.6642m  699.9968m  134.3471m  689.3139m 
 -399.87475m  123.6851m  699.9968m  134.4885m  689.1934m 
 -399.77475m  123.7061m  699.9968m  134.6299m  689.0730m 
 -399.67475m  123.7271m  699.9968m  134.7713m  688.9525m 
 -399.57475m  123.7481m  699.9967m  134.9127m  688.8321m 
 -399.47475m  123.7691m  699.9967m  135.0541m  688.7117m 
 -399.37475m  123.7902m  699.9967m  135.1955m  688.5914m 
 -399.27475m  123.8112m  699.9967m  135.3369m  688.4710m 
 -399.17475m  123.8323m  699.9967m  135.4783m  688.3507m 
 -399.07475m  123.8534m  699.9966m  135.6197m  688.2303m 
 -398.97475m  123.8745m  699.9966m  135.7611m  688.1100m 
 -398.87475m  123.8957m  699.9966m  135.9025m  687.9897m 
 -398.77475m  123.9168m  699.9966m  136.0439m  687.8695m 
 -398.67475m  123.9380m  699.9966m  136.1853m  687.7492m 
 -398.57475m  123.9592m  699.9965m  136.3267m  687.6290m 
 -398.47475m  123.9804m  699.9965m  136.4681m  687.5088m 
 -398.37475m  124.0016m  699.9965m  136.6095m  687.3886m 
 -398.27475m  124.0228m  699.9965m  136.7509m  687.2684m 
 -398.17475m  124.0441m  699.9965m  136.8923m  687.1482m 
 -398.07475m  124.0654m  699.9964m  137.0337m  687.0281m 
 -397.97475m  124.0866m  699.9964m  137.1751m  686.9079m 
 -397.87475m  124.1080m  699.9964m  137.3165m  686.7878m 
 -397.77475m  124.1293m  699.9964m  137.4579m  686.6677m 
 -397.67475m  124.1506m  699.9964m  137.5993m  686.5476m 
 -397.57475m  124.1720m  699.9963m  137.7407m  686.4276m 
 -397.47475m  124.1934m  699.9963m  137.8821m  686.3075m 
 -397.37475m  124.2148m  699.9963m  138.0235m  686.1875m 
 -397.27475m  124.2362m  699.9963m  138.1649m  686.0675m 
 -397.17475m  124.2576m  699.9963m  138.3063m  685.9475m 
 -397.07475m  124.2791m  699.9962m  138.4477m  685.8276m 
 -396.97475m  124.3005m  699.9962m  138.5891m  685.7076m 
 -396.87475m  124.3220m  699.9962m  138.7305m  685.5877m 
 -396.77475m  124.3435m  699.9962m  138.8719m  685.4678m 
 -396.67475m  124.3651m  699.9961m  139.0133m  685.3479m 
 -396.57475m  124.3866m  699.9961m  139.1547m  685.2280m 
 -396.47475m  124.4082m  699.9961m  139.2961m  685.1081m 
 -396.37475m  124.4298m  699.9961m  139.4375m  684.9883m 
 -396.27475m  124.4513m  699.9961m  139.5789m  684.8685m 
 -396.17475m  124.4730m  699.9960m  139.7203m  684.7487m 
 -396.07475m  124.4946m  699.9960m  139.8617m  684.6289m 
 -395.97475m  124.5163m  699.9960m  140.0031m  684.5091m 
 -395.87475m  124.5379m  699.9960m  140.1445m  684.3894m 
 -395.77475m  124.5596m  699.9959m  140.2859m  684.2696m 
 -395.67475m  124.5813m  699.9959m  140.4273m  684.1499m 
 -395.57475m  124.6030m  699.9959m  140.5687m  684.0302m 
 -395.47475m  124.6248m  699.9959m  140.7101m  683.9105m 
 -395.37475m  124.6465m  699.9958m  140.8515m  683.7909m 
 -395.27475m  124.6683m  699.9958m  140.9929m  683.6712m 
 -395.17475m  124.6901m  699.9958m  141.1343m  683.5516m 
 -395.07475m  124.7119m  699.9958m  141.2757m  683.4320m 
 -394.97475m  124.7338m  699.9957m  141.4171m  683.3124m 
 -394.87475m  124.7556m  699.9957m  141.5585m  683.1928m 
 -394.77475m  124.7775m  699.9957m  141.6999m  683.0733m 
 -394.67475m  124.7994m  699.9957m  141.8413m  682.9538m 
 -394.57475m  124.8213m  699.9956m  141.9827m  682.8342m 
 -394.47475m  124.8432m  699.9956m  142.1241m  682.7148m 
 -394.37475m  124.8652m  699.9956m  142.2655m  682.5953m 
 -394.27475m  124.8871m  699.9956m  142.4069m  682.4758m 
 -394.17475m  124.9091m  699.9955m  142.5483m  682.3564m 
 -394.07475m  124.9311m  699.9955m  142.6897m  682.2370m 
 -393.97475m  124.9531m  699.9955m  142.8311m  682.1176m 
 -393.87475m  124.9752m  699.9955m  142.9725m  681.9982m 
 -393.77475m  124.9972m  699.9954m  143.1139m  681.8788m 
 -393.67475m  125.0193m  699.9954m  143.2552m  681.7595m 
 -393.57475m  125.0414m  699.9954m  143.3966m  681.6401m 
 -393.47475m  125.0635m  699.9954m  143.5380m  681.5208m 
 -393.37475m  125.0856m  699.9953m  143.6794m  681.4015m 
 -393.27475m  125.1078m  699.9953m  143.8208m  681.2822m 
 -393.17475m  125.1299m  699.9953m  143.9622m  681.1630m 
 -393.07475m  125.1521m  699.9953m  144.1036m  681.0438m 
 -392.97475m  125.1743m  699.9952m  144.2450m  680.9245m 
 -392.87475m  125.1965m  699.9952m  144.3864m  680.8053m 
 -392.77475m  125.2188m  699.9952m  144.5278m  680.6862m 
 -392.67475m  125.2410m  699.9951m  144.6692m  680.5670m 
 -392.57475m  125.2633m  699.9951m  144.8106m  680.4478m 
 -392.47475m  125.2856m  699.9951m  144.9520m  680.3287m 
 -392.37475m  125.3079m  699.9951m  145.0934m  680.2096m 
 -392.27475m  125.3303m  699.9950m  145.2348m  680.0905m 
 -392.17475m  125.3526m  699.9950m  145.3761m  679.9715m 
 -392.07475m  125.3750m  699.9950m  145.5175m  679.8524m 
 -391.97475m  125.3974m  699.9949m  145.6589m  679.7334m 
 -391.87475m  125.4198m  699.9949m  145.8003m  679.6144m 
 -391.77475m  125.4422m  699.9949m  145.9417m  679.4954m 
 -391.67475m  125.4647m  699.9948m  146.0831m  679.3764m 
 -391.57475m  125.4871m  699.9948m  146.2245m  679.2574m 
 -391.47475m  125.5096m  699.9948m  146.3659m  679.1385m 
 -391.37475m  125.5321m  699.9948m  146.5073m  679.0196m 
 -391.27475m  125.5546m  699.9947m  146.6487m  678.9007m 
 -391.17475m  125.5772m  699.9947m  146.7901m  678.7818m 
 -391.07475m  125.5997m  699.9947m  146.9315m  678.6629m 
 -390.97475m  125.6223m  699.9946m  147.0728m  678.5441m 
 -390.87475m  125.6449m  699.9946m  147.2142m  678.4253m 
 -390.77475m  125.6675m  699.9946m  147.3556m  678.3065m 
 -390.67475m  125.6902m  699.9945m  147.4970m  678.1877m 
 -390.57475m  125.7128m  699.9945m  147.6384m  678.0689m 
 -390.47475m  125.7355m  699.9945m  147.7798m  677.9502m 
 -390.37475m  125.7582m  699.9944m  147.9212m  677.8314m 
 -390.27475m  125.7809m  699.9944m  148.0626m  677.7127m 
 -390.17475m  125.8036m  699.9944m  148.2040m  677.5940m 
 -390.07475m  125.8264m  699.9943m  148.3453m  677.4754m 
 -389.97475m  125.8491m  699.9943m  148.4867m  677.3567m 
 -389.87475m  125.8719m  699.9943m  148.6281m  677.2381m 
 -389.77475m  125.8947m  699.9942m  148.7695m  677.1195m 
 -389.67475m  125.9176m  699.9942m  148.9109m  677.0009m 
 -389.57475m  125.9404m  699.9942m  149.0523m  676.8823m 
 -389.47475m  125.9633m  699.9941m  149.1937m  676.7637m 
 -389.37475m  125.9862m  699.9941m  149.3351m  676.6452m 
 -389.27475m  126.0091m  699.9941m  149.4764m  676.5267m 
 -389.17475m  126.0320m  699.9940m  149.6178m  676.4082m 
 -389.07475m  126.0549m  699.9940m  149.7592m  676.2897m 
 -388.97475m  126.0779m  699.9940m  149.9006m  676.1712m 
 -388.87475m  126.1009m  699.9939m  150.0420m  676.0528m 
 -388.77475m  126.1239m  699.9939m  150.1834m  675.9344m 
 -388.67475m  126.1469m  699.9939m  150.3248m  675.8160m 
 -388.57475m  126.1699m  699.9938m  150.4662m  675.6976m 
 -388.47475m  126.1930m  699.9938m  150.6075m  675.5792m 
 -388.37475m  126.2161m  699.9938m  150.7489m  675.4609m 
 -388.27475m  126.2391m  699.9937m  150.8903m  675.3426m 
 -388.17475m  126.2623m  699.9937m  151.0317m  675.2243m 
 -388.07475m  126.2854m  699.9936m  151.1731m  675.1060m 
 -387.97475m  126.3086m  699.9936m  151.3145m  674.9877m 
 -387.87475m  126.3317m  699.9936m  151.4558m  674.8695m 
 -387.77475m  126.3549m  699.9935m  151.5972m  674.7512m 
 -387.67475m  126.3781m  699.9935m  151.7386m  674.6330m 
 -387.57475m  126.4014m  699.9935m  151.8800m  674.5148m 
 -387.47475m  126.4246m  699.9934m  152.0214m  674.3967m 
 -387.37475m  126.4479m  699.9934m  152.1628m  674.2785m 
 -387.27475m  126.4712m  699.9933m  152.3041m  674.1604m 
 -387.17475m  126.4945m  699.9933m  152.4455m  674.0423m 
 -387.07475m  126.5178m  699.9933m  152.5869m  673.9242m 
 -386.97475m  126.5412m  699.9932m  152.7283m  673.8061m 
 -386.87475m  126.5645m  699.9932m  152.8697m  673.6880m 
 -386.77475m  126.5879m  699.9931m  153.0111m  673.5700m 
 -386.67475m  126.6113m  699.9931m  153.1524m  673.4520m 
 -386.57475m  126.6347m  699.9931m  153.2938m  673.3340m 
 -386.47475m  126.6582m  699.9930m  153.4352m  673.2160m 
 -386.37475m  126.6817m  699.9930m  153.5766m  673.0981m 
 -386.27475m  126.7051m  699.9929m  153.7180m  672.9801m 
 -386.17475m  126.7287m  699.9929m  153.8593m  672.8622m 
 -386.07475m  126.7522m  699.9929m  154.0007m  672.7443m 
 -385.97475m  126.7757m  699.9928m  154.1421m  672.6264m 
 -385.87475m  126.7993m  699.9928m  154.2835m  672.5086m 
 -385.77475m  126.8229m  699.9927m  154.4249m  672.3907m 
 -385.67475m  126.8465m  699.9927m  154.5662m  672.2729m 
 -385.57475m  126.8701m  699.9926m  154.7076m  672.1551m 
 -385.47475m  126.8937m  699.9926m  154.8490m  672.0374m 
 -385.37475m  126.9174m  699.9926m  154.9904m  671.9196m 
 -385.27475m  126.9411m  699.9925m  155.1317m  671.8019m 
 -385.17475m  126.9648m  699.9925m  155.2731m  671.6841m 
 -385.07475m  126.9885m  699.9924m  155.4145m  671.5664m 
 -384.97475m  127.0123m  699.9924m  155.5559m  671.4488m 
 -384.87475m  127.0360m  699.9923m  155.6973m  671.3311m 
 -384.77475m  127.0598m  699.9923m  155.8386m  671.2135m 
 -384.67475m  127.0836m  699.9922m  155.9800m  671.0958m 
 -384.57475m  127.1074m  699.9922m  156.1214m  670.9782m 
 -384.47475m  127.1313m  699.9922m  156.2628m  670.8607m 
 -384.37475m  127.1551m  699.9921m  156.4041m  670.7431m 
 -384.27475m  127.1790m  699.9921m  156.5455m  670.6256m 
 -384.17475m  127.2029m  699.9920m  156.6869m  670.5081m 
 -384.07475m  127.2268m  699.9920m  156.8283m  670.3906m 
 -383.97475m  127.2508m  699.9919m  156.9696m  670.2731m 
 -383.87475m  127.2747m  699.9919m  157.1110m  670.1556m 
 -383.77475m  127.2987m  699.9918m  157.2524m  670.0382m 
 -383.67475m  127.3227m  699.9918m  157.3938m  669.9208m 
 -383.57475m  127.3468m  699.9917m  157.5351m  669.8034m 
 -383.47475m  127.3708m  699.9917m  157.6765m  669.6860m 
 -383.37475m  127.3949m  699.9916m  157.8179m  669.5686m 
 -383.27475m  127.4189m  699.9916m  157.9592m  669.4513m 
 -383.17475m  127.4430m  699.9915m  158.1006m  669.3340m 
 -383.07475m  127.4672m  699.9915m  158.2420m  669.2167m 
 -382.97475m  127.4913m  699.9914m  158.3834m  669.0994m 
 -382.87475m  127.5155m  699.9914m  158.5247m  668.9821m 
 -382.77475m  127.5397m  699.9913m  158.6661m  668.8649m 
 -382.67475m  127.5639m  699.9913m  158.8075m  668.7477m 
 -382.57475m  127.5881m  699.9912m  158.9488m  668.6305m 
 -382.47475m  127.6123m  699.9912m  159.0902m  668.5133m 
 -382.37475m  127.6366m  699.9911m  159.2316m  668.3962m 
 -382.27475m  127.6609m  699.9911m  159.3729m  668.2790m 
 -382.17475m  127.6852m  699.9910m  159.5143m  668.1619m 
 -382.07475m  127.7095m  699.9910m  159.6557m  668.0448m 
 -381.97475m  127.7339m  699.9909m  159.7971m  667.9277m 
 -381.87475m  127.7582m  699.9909m  159.9384m  667.8107m 
 -381.77475m  127.7826m  699.9908m  160.0798m  667.6936m 
 -381.67475m  127.8070m  699.9908m  160.2212m  667.5766m 
 -381.57475m  127.8315m  699.9907m  160.3625m  667.4596m 
 -381.47475m  127.8559m  699.9907m  160.5039m  667.3427m 
 -381.37475m  127.8804m  699.9906m  160.6453m  667.2257m 
 -381.27475m  127.9049m  699.9905m  160.7866m  667.1088m 
 -381.17475m  127.9294m  699.9905m  160.9280m  666.9919m 
 -381.07475m  127.9539m  699.9904m  161.0694m  666.8750m 
 -380.97475m  127.9784m  699.9904m  161.2107m  666.7581m 
 -380.87475m  128.0030m  699.9903m  161.3521m  666.6413m 
 -380.77475m  128.0276m  699.9903m  161.4934m  666.5244m 
 -380.67475m  128.0522m  699.9902m  161.6348m  666.4076m 
 -380.57475m  128.0769m  699.9901m  161.7762m  666.2908m 
 -380.47475m  128.1015m  699.9901m  161.9175m  666.1741m 
 -380.37475m  128.1262m  699.9900m  162.0589m  666.0573m 
 -380.27475m  128.1509m  699.9900m  162.2003m  665.9406m 
 -380.17475m  128.1756m  699.9899m  162.3416m  665.8239m 
 -380.07475m  128.2003m  699.9899m  162.4830m  665.7072m 
 -379.97475m  128.2251m  699.9898m  162.6244m  665.5905m 
 -379.87475m  128.2499m  699.9897m  162.7657m  665.4739m 
 -379.77475m  128.2747m  699.9897m  162.9071m  665.3573m 
 -379.67475m  128.2995m  699.9896m  163.0484m  665.2407m 
 -379.57475m  128.3243m  699.9895m  163.1898m  665.1241m 
 -379.47475m  128.3492m  699.9895m  163.3312m  665.0075m 
 -379.37475m  128.3741m  699.9894m  163.4725m  664.8910m 
 -379.27475m  128.3990m  699.9894m  163.6139m  664.7745m 
 -379.17475m  128.4239m  699.9893m  163.7552m  664.6580m 
 -379.07475m  128.4488m  699.9892m  163.8966m  664.5415m 
 -378.97475m  128.4738m  699.9892m  164.0379m  664.4250m 
 -378.87475m  128.4988m  699.9891m  164.1793m  664.3086m 
 -378.77475m  128.5238m  699.9890m  164.3207m  664.1922m 
 -378.67475m  128.5488m  699.9890m  164.4620m  664.0758m 
 -378.57475m  128.5739m  699.9889m  164.6034m  663.9594m 
 -378.47475m  128.5989m  699.9889m  164.7447m  663.8431m 
 -378.37475m  128.6240m  699.9888m  164.8861m  663.7267m 
 -378.27475m  128.6491m  699.9887m  165.0274m  663.6104m 
 -378.17475m  128.6743m  699.9887m  165.1688m  663.4941m 
 -378.07475m  128.6994m  699.9886m  165.3102m  663.3779m 
 -377.97475m  128.7246m  699.9885m  165.4515m  663.2616m 
 -377.87475m  128.7498m  699.9885m  165.5929m  663.1454m 
 -377.77475m  128.7750m  699.9884m  165.7342m  663.0292m 
 -377.67475m  128.8002m  699.9883m  165.8756m  662.9130m 
 -377.57475m  128.8255m  699.9882m  166.0169m  662.7968m 
 -377.47475m  128.8508m  699.9882m  166.1583m  662.6807m 
 -377.37475m  128.8761m  699.9881m  166.2996m  662.5646m 
 -377.27475m  128.9014m  699.9880m  166.4410m  662.4485m 
 -377.17475m  128.9267m  699.9880m  166.5823m  662.3324m 
 -377.07475m  128.9521m  699.9879m  166.7237m  662.2163m 
 -376.97475m  128.9775m  699.9878m  166.8650m  662.1003m 
 -376.87475m  129.0029m  699.9878m  167.0064m  661.9843m 
 -376.77475m  129.0283m  699.9877m  167.1477m  661.8683m 
 -376.67475m  129.0538m  699.9876m  167.2891m  661.7523m 
 -376.57475m  129.0792m  699.9875m  167.4304m  661.6364m 
 -376.47475m  129.1047m  699.9875m  167.5718m  661.5204m 
 -376.37475m  129.1302m  699.9874m  167.7131m  661.4045m 
 -376.27475m  129.1558m  699.9873m  167.8545m  661.2886m 
 -376.17475m  129.1813m  699.9872m  167.9958m  661.1728m 
 -376.07475m  129.2069m  699.9872m  168.1372m  661.0569m 
 -375.97475m  129.2325m  699.9871m  168.2785m  660.9411m 
 -375.87475m  129.2581m  699.9870m  168.4198m  660.8253m 
 -375.77475m  129.2838m  699.9869m  168.5612m  660.7095m 
 -375.67475m  129.3094m  699.9869m  168.7025m  660.5937m 
 -375.57475m  129.3351m  699.9868m  168.8439m  660.4780m 
 -375.47475m  129.3608m  699.9867m  168.9852m  660.3623m 
 -375.37475m  129.3865m  699.9866m  169.1266m  660.2466m 
 -375.27475m  129.4123m  699.9865m  169.2679m  660.1309m 
 -375.17475m  129.4381m  699.9865m  169.4092m  660.0153m 
 -375.07475m  129.4638m  699.9864m  169.5506m  659.8996m 
 -374.97475m  129.4897m  699.9863m  169.6919m  659.7840m 
 -374.87475m  129.5155m  699.9862m  169.8333m  659.6684m 
 -374.77475m  129.5413m  699.9861m  169.9746m  659.5529m 
 -374.67475m  129.5672m  699.9861m  170.1160m  659.4373m 
 -374.57475m  129.5931m  699.9860m  170.2573m  659.3218m 
 -374.47475m  129.6190m  699.9859m  170.3986m  659.2063m 
 -374.37475m  129.6450m  699.9858m  170.5400m  659.0908m 
 -374.27475m  129.6709m  699.9857m  170.6813m  658.9754m 
 -374.17475m  129.6969m  699.9856m  170.8226m  658.8599m 
 -374.07475m  129.7229m  699.9856m  170.9640m  658.7445m 
 -373.97475m  129.7489m  699.9855m  171.1053m  658.6291m 
 -373.87475m  129.7750m  699.9854m  171.2466m  658.5137m 
 -373.77475m  129.8011m  699.9853m  171.3880m  658.3984m 
 -373.67475m  129.8272m  699.9852m  171.5293m  658.2831m 
 -373.57475m  129.8533m  699.9851m  171.6707m  658.1677m 
 -373.47475m  129.8794m  699.9850m  171.8120m  658.0525m 
 -373.37475m  129.9056m  699.9849m  171.9533m  657.9372m 
 -373.27475m  129.9317m  699.9849m  172.0946m  657.8220m 
 -373.17475m  129.9579m  699.9848m  172.2360m  657.7067m 
 -373.07475m  129.9842m  699.9847m  172.3773m  657.5915m 
 -372.97475m  130.0104m  699.9846m  172.5186m  657.4764m 
 -372.87475m  130.0367m  699.9845m  172.6600m  657.3612m 
 -372.77475m  130.0630m  699.9844m  172.8013m  657.2461m 
 -372.67475m  130.0893m  699.9843m  172.9426m  657.1310m 
 -372.57475m  130.1156m  699.9842m  173.0840m  657.0159m 
 -372.47475m  130.1420m  699.9841m  173.2253m  656.9008m 
 -372.37475m  130.1683m  699.9840m  173.3666m  656.7858m 
 -372.27475m  130.1947m  699.9839m  173.5079m  656.6707m 
 -372.17475m  130.2212m  699.9838m  173.6493m  656.5557m 
 -372.07475m  130.2476m  699.9837m  173.7906m  656.4407m 
 -371.97475m  130.2741m  699.9837m  173.9319m  656.3258m 
 -371.87475m  130.3005m  699.9836m  174.0732m  656.2109m 
 -371.77475m  130.3271m  699.9835m  174.2146m  656.0959m 
 -371.67475m  130.3536m  699.9834m  174.3559m  655.9810m 
 -371.57475m  130.3801m  699.9833m  174.4972m  655.8662m 
 -371.47475m  130.4067m  699.9832m  174.6385m  655.7513m 
 -371.37475m  130.4333m  699.9831m  174.7799m  655.6365m 
 -371.27475m  130.4599m  699.9830m  174.9212m  655.5217m 
 -371.17475m  130.4866m  699.9829m  175.0625m  655.4069m 
 -371.07475m  130.5132m  699.9828m  175.2038m  655.2922m 
 -370.97475m  130.5399m  699.9827m  175.3451m  655.1774m 
 -370.87475m  130.5666m  699.9826m  175.4865m  655.0627m 
 -370.77475m  130.5933m  699.9825m  175.6278m  654.9480m 
 -370.67475m  130.6201m  699.9823m  175.7691m  654.8333m 
 -370.57475m  130.6469m  699.9822m  175.9104m  654.7187m 
 -370.47475m  130.6737m  699.9821m  176.0517m  654.6041m 
 -370.37475m  130.7005m  699.9820m  176.1930m  654.4895m 
 -370.27475m  130.7273m  699.9819m  176.3344m  654.3749m 
 -370.17475m  130.7542m  699.9818m  176.4757m  654.2603m 
 -370.07475m  130.7811m  699.9817m  176.6170m  654.1458m 
 -369.97475m  130.8080m  699.9816m  176.7583m  654.0313m 
 -369.87475m  130.8349m  699.9815m  176.8996m  653.9168m 
 -369.77475m  130.8618m  699.9814m  177.0409m  653.8023m 
 -369.67475m  130.8888m  699.9813m  177.1822m  653.6879m 
 -369.57475m  130.9158m  699.9812m  177.3235m  653.5734m 
 -369.47475m  130.9428m  699.9810m  177.4649m  653.4590m 
 -369.37475m  130.9699m  699.9809m  177.6062m  653.3446m 
 -369.27475m  130.9969m  699.9808m  177.7475m  653.2303m 
 -369.17475m  131.0240m  699.9807m  177.8888m  653.1159m 
 -369.07475m  131.0511m  699.9806m  178.0301m  653.0016m 
 -368.97475m  131.0782m  699.9805m  178.1714m  652.8873m 
 -368.87475m  131.1054m  699.9804m  178.3127m  652.7731m 
 -368.77475m  131.1326m  699.9802m  178.4540m  652.6588m 
 -368.67475m  131.1598m  699.9801m  178.5953m  652.5446m 
 -368.57475m  131.1870m  699.9800m  178.7366m  652.4304m 
 -368.47475m  131.2142m  699.9799m  178.8779m  652.3162m 
 -368.37475m  131.2415m  699.9798m  179.0192m  652.2021m 
 -368.27475m  131.2688m  699.9797m  179.1605m  652.0879m 
 -368.17475m  131.2961m  699.9795m  179.3018m  651.9738m 
 -368.07475m  131.3234m  699.9794m  179.4431m  651.8597m 
 -367.97475m  131.3508m  699.9793m  179.5844m  651.7457m 
 -367.87475m  131.3782m  699.9792m  179.7257m  651.6316m 
 -367.77475m  131.4056m  699.9790m  179.8670m  651.5176m 
 -367.67475m  131.4330m  699.9789m  180.0083m  651.4036m 
 -367.57475m  131.4604m  699.9788m  180.1496m  651.2896m 
 -367.47475m  131.4879m  699.9787m  180.2909m  651.1757m 
 -367.37475m  131.5154m  699.9785m  180.4322m  651.0617m 
 -367.27475m  131.5429m  699.9784m  180.5735m  650.9478m 
 -367.17475m  131.5704m  699.9783m  180.7148m  650.8339m 
 -367.07475m  131.5980m  699.9782m  180.8561m  650.7201m 
 -366.97475m  131.6256m  699.9780m  180.9974m  650.6062m 
 -366.87475m  131.6532m  699.9779m  181.1387m  650.4924m 
 -366.77475m  131.6808m  699.9778m  181.2799m  650.3786m 
 -366.67475m  131.7085m  699.9776m  181.4212m  650.2649m 
 -366.57475m  131.7361m  699.9775m  181.5625m  650.1511m 
 -366.47475m  131.7638m  699.9774m  181.7038m  650.0374m 
 -366.37475m  131.7916m  699.9772m  181.8451m  649.9237m 
 -366.27475m  131.8193m  699.9771m  181.9864m  649.8100m 
 -366.17475m  131.8471m  699.9770m  182.1277m  649.6964m 
 -366.07475m  131.8748m  699.9768m  182.2689m  649.5827m 
 -365.97475m  131.9027m  699.9767m  182.4102m  649.4691m 
 -365.87475m  131.9305m  699.9765m  182.5515m  649.3555m 
 -365.77475m  131.9583m  699.9764m  182.6928m  649.2420m 
 -365.67475m  131.9862m  699.9763m  182.8341m  649.1284m 
 -365.57475m  132.0141m  699.9761m  182.9754m  649.0149m 
 -365.47475m  132.0421m  699.9760m  183.1166m  648.9014m 
 -365.37475m  132.0700m  699.9758m  183.2579m  648.7879m 
 -365.27475m  132.0980m  699.9757m  183.3992m  648.6745m 
 -365.17475m  132.1260m  699.9755m  183.5405m  648.5610m 
 -365.07475m  132.1540m  699.9754m  183.6817m  648.4476m 
 -364.97475m  132.1820m  699.9753m  183.8230m  648.3343m 
 -364.87475m  132.2101m  699.9751m  183.9643m  648.2209m 
 -364.77475m  132.2382m  699.9750m  184.1056m  648.1076m 
 -364.67475m  132.2663m  699.9748m  184.2468m  647.9943m 
 -364.57475m  132.2944m  699.9747m  184.3881m  647.8810m 
 -364.47475m  132.3226m  699.9745m  184.5294m  647.7677m 
 -364.37475m  132.3508m  699.9744m  184.6707m  647.6545m 
 -364.27475m  132.3790m  699.9742m  184.8119m  647.5412m 
 -364.17475m  132.4072m  699.9741m  184.9532m  647.4281m 
 -364.07475m  132.4354m  699.9739m  185.0945m  647.3149m 
 -363.97475m  132.4637m  699.9737m  185.2357m  647.2017m 
 -363.87475m  132.4920m  699.9736m  185.3770m  647.0886m 
 -363.77475m  132.5203m  699.9734m  185.5182m  646.9755m 
 -363.67475m  132.5487m  699.9733m  185.6595m  646.8624m 
 -363.57475m  132.5770m  699.9731m  185.8008m  646.7494m 
 -363.47475m  132.6054m  699.9730m  185.9420m  646.6363m 
 -363.37475m  132.6338m  699.9728m  186.0833m  646.5233m 
 -363.27475m  132.6623m  699.9726m  186.2246m  646.4103m 
 -363.17475m  132.6907m  699.9725m  186.3658m  646.2974m 
 -363.07475m  132.7192m  699.9723m  186.5071m  646.1844m 
 -362.97475m  132.7477m  699.9721m  186.6483m  646.0715m 
 -362.87475m  132.7762m  699.9720m  186.7896m  645.9586m 
 -362.77475m  132.8048m  699.9718m  186.9308m  645.8458m 
 -362.67475m  132.8334m  699.9716m  187.0721m  645.7329m 
 -362.57475m  132.8620m  699.9715m  187.2133m  645.6201m 
 -362.47475m  132.8906m  699.9713m  187.3546m  645.5073m 
 -362.37475m  132.9192m  699.9711m  187.4958m  645.3945m 
 -362.27475m  132.9479m  699.9709m  187.6371m  645.2818m 
 -362.17475m  132.9766m  699.9708m  187.7783m  645.1690m 
 -362.07475m  133.0053m  699.9706m  187.9196m  645.0563m 
 -361.97475m  133.0341m  699.9704m  188.0608m  644.9437m 
 -361.87475m  133.0628m  699.9702m  188.2021m  644.8310m 
 -361.77475m  133.0916m  699.9701m  188.3433m  644.7184m 
 -361.67475m  133.1204m  699.9699m  188.4846m  644.6058m 
 -361.57475m  133.1493m  699.9697m  188.6258m  644.4932m 
 -361.47475m  133.1781m  699.9695m  188.7670m  644.3806m 
 -361.37475m  133.2070m  699.9694m  188.9083m  644.2681m 
 -361.27475m  133.2359m  699.9692m  189.0495m  644.1555m 
 -361.17475m  133.2648m  699.9690m  189.1908m  644.0431m 
 -361.07475m  133.2938m  699.9688m  189.3320m  643.9306m 
 -360.97475m  133.3228m  699.9686m  189.4732m  643.8181m 
 -360.87475m  133.3518m  699.9684m  189.6145m  643.7057m 
 -360.77475m  133.3808m  699.9682m  189.7557m  643.5933m 
 -360.67475m  133.4098m  699.9680m  189.8969m  643.4810m 
 -360.57475m  133.4389m  699.9679m  190.0382m  643.3686m 
 -360.47475m  133.4680m  699.9677m  190.1794m  643.2563m 
 -360.37475m  133.4971m  699.9675m  190.3206m  643.1440m 
 -360.27475m  133.5263m  699.9673m  190.4618m  643.0317m 
 -360.17475m  133.5554m  699.9671m  190.6031m  642.9194m 
 -360.07475m  133.5846m  699.9669m  190.7443m  642.8072m 
[...]
  469.52525m  699.9999m  112.5768m  776.5858m   35.9910m 
  469.62525m  699.9999m  112.5649m  776.7153m   35.8495m 
  469.72525m  699.9999m  112.5531m  776.8449m   35.7081m 
  469.82525m  699.9999m  112.5412m  776.9744m   35.5667m 
  469.92525m  699.9999m  112.5293m  777.1040m   35.4253m 
  470.02525m  699.9999m  112.5175m  777.2336m   35.2839m 
  470.12525m  699.9999m  112.5056m  777.3631m   35.1424m 
  470.22525m  699.9999m  112.4938m  777.4927m   35.0010m 
  470.32525m  699.9999m  112.4820m  777.6223m   34.8596m 
  470.42525m  699.9999m  112.4702m  777.7519m   34.7182m 
  470.52525m  699.9999m  112.4584m  777.8815m   34.5767m 
  470.62525m  699.9999m  112.4466m  778.0112m   34.4353m 
  470.72525m  699.9999m  112.4348m  778.1408m   34.2939m 
  470.82525m  699.9999m  112.4230m  778.2704m   34.1525m 
  470.92525m  699.9999m  112.4112m  778.4001m   34.0111m 
  471.02525m  699.9999m  112.3995m  778.5298m   33.8696m 
  471.12525m  699.9999m  112.3877m  778.6594m   33.7282m 
  471.22525m  699.9999m  112.3760m  778.7891m   33.5868m 
  471.32525m  699.9999m  112.3642m  778.9188m   33.4454m 
  471.42525m  699.9999m  112.3525m  779.0485m   33.3040m 
  471.52525m  699.9999m  112.3408m  779.1782m   33.1625m 
  471.62525m  699.9999m  112.3291m  779.3079m   33.0211m 
  471.72525m  699.9999m  112.3174m  779.4376m   32.8797m 
  471.82525m  699.9999m  112.3057m  779.5674m   32.7383m 
  471.92525m  699.9999m  112.2940m  779.6971m   32.5969m 
  472.02525m  699.9999m  112.2824m  779.8269m   32.4554m 
  472.12525m  699.9999m  112.2707m  779.9566m   32.3140m 
  472.22525m  699.9999m  112.2590m  780.0864m   32.1726m 
  472.32525m  699.9999m  112.2474m  780.2162m   32.0312m 
  472.42525m  699.9999m  112.2358m  780.3460m   31.8897m 
  472.52525m  699.9999m  112.2241m  780.4758m   31.7483m 
  472.62525m  699.9999m  112.2125m  780.6056m   31.6069m 
  472.72525m  699.9999m  112.2009m  780.7354m   31.4655m 
  472.82525m  699.9999m  112.1893m  780.8652m   31.3241m 
  472.92525m  699.9999m  112.1777m  780.9950m   31.1826m 
  473.02525m  699.9999m  112.1662m  781.1249m   31.0412m 
  473.12525m  699.9999m  112.1546m  781.2547m   30.8998m 
  473.22525m  699.9999m  112.1430m  781.3846m   30.7584m 
  473.32525m  699.9999m  112.1315m  781.5145m   30.6170m 
  473.42525m  699.9999m  112.1199m  781.6443m   30.4755m 
  473.52525m  699.9999m  112.1084m  781.7742m   30.3341m 
  473.62525m  699.9999m  112.0969m  781.9041m   30.1927m 
  473.72525m  699.9999m  112.0854m  782.0340m   30.0513m 
  473.82525m  700.0000m  112.0739m  782.1640m   29.9099m 
  473.92525m  700.0000m  112.0624m  782.2939m   29.7684m 
  474.02525m  700.0000m  112.0509m  782.4238m   29.6270m 
  474.12525m  700.0000m  112.0394m  782.5537m   29.4856m 
  474.22525m  700.0000m  112.0279m  782.6837m   29.3442m 
  474.32525m  700.0000m  112.0164m  782.8137m   29.2027m 
  474.42525m  700.0000m  112.0050m  782.9436m   29.0613m 
  474.52525m  700.0000m  111.9935m  783.0736m   28.9199m 
  474.62525m  700.0000m  111.9821m  783.2036m   28.7785m 
  474.72525m  700.0000m  111.9707m  783.3336m   28.6371m 
  474.82525m  700.0000m  111.9593m  783.4636m   28.4956m 
  474.92525m  700.0000m  111.9479m  783.5936m   28.3542m 
  475.02525m  700.0000m  111.9365m  783.7236m   28.2128m 
  475.12525m  700.0000m  111.9251m  783.8536m   28.0714m 
  475.22525m  700.0000m  111.9137m  783.9837m   27.9300m 
  475.32525m  700.0000m  111.9023m  784.1137m   27.7885m 
  475.42525m  700.0000m  111.8909m  784.2438m   27.6471m 
  475.52525m  700.0000m  111.8796m  784.3738m   27.5057m 
  475.62525m  700.0000m  111.8682m  784.5039m   27.3643m 
  475.72525m  700.0000m  111.8569m  784.6340m   27.2228m 
  475.82525m  700.0000m  111.8456m  784.7641m   27.0814m 
  475.92525m  700.0000m  111.8342m  784.8942m   26.9400m 
  476.02525m  700.0000m  111.8229m  785.0243m   26.7986m 
  476.12525m  700.0000m  111.8116m  785.1544m   26.6572m 
  476.22525m  700.0000m  111.8003m  785.2845m   26.5157m 
  476.32525m  700.0000m  111.7890m  785.4147m   26.3743m 
  476.42525m  700.0000m  111.7778m  785.5448m   26.2329m 
  476.52525m  700.0000m  111.7665m  785.6750m   26.0915m 
  476.62525m  700.0000m  111.7552m  785.8051m   25.9501m 
  476.72525m  700.0000m  111.7440m  785.9353m   25.8086m 
  476.82525m  700.0000m  111.7327m  786.0655m   25.6672m 
  476.92525m  700.0000m  111.7215m  786.1957m   25.5258m 
  477.02525m  700.0000m  111.7103m  786.3259m   25.3844m 
  477.12525m  700.0000m  111.6991m  786.4561m   25.2430m 
  477.22525m  700.0000m  111.6878m  786.5863m   25.1015m 
  477.32525m  700.0000m  111.6766m  786.7165m   24.9601m 
  477.42525m  700.0000m  111.6655m  786.8467m   24.8187m 
  477.52525m  700.0000m  111.6543m  786.9770m   24.6773m 
  477.62525m  700.0000m  111.6431m  787.1072m   24.5358m 
  477.72525m  700.0000m  111.6319m  787.2375m   24.3944m 
  477.82525m  700.0000m  111.6208m  787.3677m   24.2530m 
  477.92525m  700.0000m  111.6096m  787.4980m   24.1116m 
  478.02525m  700.0000m  111.5985m  787.6283m   23.9702m 
  478.12525m  700.0000m  111.5874m  787.7586m   23.8287m 
  478.22525m  700.0000m  111.5762m  787.8889m   23.6873m 
  478.32525m  700.0000m  111.5651m  788.0192m   23.5459m 
  478.42525m  700.0000m  111.5540m  788.1495m   23.4045m 
  478.52525m  700.0000m  111.5429m  788.2798m   23.2631m 
  478.62525m  700.0000m  111.5318m  788.4101m   23.1216m 
  478.72525m  700.0000m  111.5207m  788.5405m   22.9802m 
  478.82525m  700.0000m  111.5097m  788.6708m   22.8388m 
  478.92525m  700.0000m  111.4986m  788.8012m   22.6974m 
  479.02525m  700.0000m  111.4876m  788.9316m   22.5560m 
  479.12525m  700.0000m  111.4765m  789.0619m   22.4145m 
  479.22525m  700.0000m  111.4655m  789.1923m   22.2731m 
  479.32525m  700.0000m  111.4544m  789.3227m   22.1317m 
  479.42525m  700.0000m  111.4434m  789.4531m   21.9903m 
  479.52525m  700.0000m  111.4324m  789.5835m   21.8488m 
  479.62525m  700.0000m  111.4214m  789.7139m   21.7074m 
  479.72525m  700.0000m  111.4104m  789.8444m   21.5660m 
  479.82525m  700.0000m  111.3994m  789.9748m   21.4246m 
  479.92525m  700.0000m  111.3884m  790.1052m   21.2832m 
  480.02525m  700.0000m  111.3775m  790.2357m   21.1417m 
  480.12525m  700.0000m  111.3665m  790.3662m   21.0003m 
  480.22525m  700.0000m  111.3556m  790.4966m   20.8589m 
  480.32525m  700.0000m  111.3446m  790.6271m   20.7175m 
  480.42525m  700.0000m  111.3337m  790.7576m   20.5761m 
  480.52525m  700.0000m  111.3228m  790.8881m   20.4346m 
  480.62525m  700.0000m  111.3118m  791.0186m   20.2932m 
  480.72525m  700.0000m  111.3009m  791.1491m   20.1518m 
  480.82525m  700.0000m  111.2900m  791.2796m   20.0104m 
  480.92525m  700.0000m  111.2791m  791.4101m   19.8690m 
  481.02525m  700.0000m  111.2682m  791.5407m   19.7275m 
  481.12525m  700.0000m  111.2574m  791.6712m   19.5861m 
  481.22525m  700.0000m  111.2465m  791.8018m   19.4447m 
  481.32525m  700.0000m  111.2356m  791.9323m   19.3033m 
  481.42525m  700.0000m  111.2248m  792.0629m   19.1618m 
  481.52525m  700.0000m  111.2139m  792.1935m   19.0204m 
  481.62525m  700.0000m  111.2031m  792.3241m   18.8790m 
  481.72525m  700.0000m  111.1923m  792.4547m   18.7376m 
  481.82525m  700.0000m  111.1814m  792.5853m   18.5962m 
  481.92525m  700.0000m  111.1706m  792.7159m   18.4547m 
  482.02525m  700.0000m  111.1598m  792.8465m   18.3133m 
  482.12525m  700.0000m  111.1490m  792.9771m   18.1719m 
  482.22525m  700.0000m  111.1383m  793.1077m   18.0305m 
  482.32525m  700.0000m  111.1275m  793.2384m   17.8891m 
  482.42525m  700.0000m  111.1167m  793.3690m   17.7476m 
  482.52525m  700.0000m  111.1059m  793.4997m   17.6062m 
  482.62525m  700.0000m  111.0952m  793.6304m   17.4648m 
  482.72525m  700.0000m  111.0844m  793.7610m   17.3234m 
  482.82525m  700.0000m  111.0737m  793.8917m   17.1819m 
  482.92525m  700.0000m  111.0630m  794.0224m   17.0405m 
  483.02525m  700.0000m  111.0523m  794.1531m   16.8991m 
  483.12525m  700.0000m  111.0415m  794.2838m   16.7577m 
  483.22525m  700.0000m  111.0308m  794.4145m   16.6163m 
  483.32525m  700.0000m  111.0201m  794.5453m   16.4748m 
  483.42525m  700.0000m  111.0095m  794.6760m   16.3334m 
  483.52525m  700.0000m  110.9988m  794.8067m   16.1920m 
  483.62525m  700.0000m  110.9881m  794.9375m   16.0506m 
  483.72525m  700.0000m  110.9774m  795.0683m   15.9092m 
  483.82525m  700.0000m  110.9668m  795.1990m   15.7677m 
  483.92525m  700.0000m  110.9561m  795.3298m   15.6263m 
  484.02525m  700.0000m  110.9455m  795.4606m   15.4849m 
  484.12525m  700.0000m  110.9349m  795.5914m   15.3435m 
  484.22525m  700.0000m  110.9242m  795.7222m   15.2021m 
  484.32525m  700.0000m  110.9136m  795.8530m   15.0606m 
  484.42525m  700.0000m  110.9030m  795.9838m   14.9192m 
  484.52525m  700.0000m  110.8924m  796.1146m   14.7778m 
  484.62525m  700.0000m  110.8818m  796.2454m   14.6364m 
  484.72525m  700.0000m  110.8712m  796.3763m   14.4949m 
  484.82525m  700.0000m  110.8607m  796.5071m   14.3535m 
  484.92525m  700.0000m  110.8501m  796.6380m   14.2121m 
  485.02525m  700.0000m  110.8396m  796.7688m   14.0707m 
  485.12525m  700.0000m  110.8290m  796.8997m   13.9293m 
  485.22525m  700.0000m  110.8185m  797.0306m   13.7878m 
  485.32525m  700.0000m  110.8079m  797.1615m   13.6464m 
  485.42525m  700.0000m  110.7974m  797.2924m   13.5050m 
  485.52525m  700.0000m  110.7869m  797.4233m   13.3636m 
  485.62525m  700.0000m  110.7764m  797.5542m   13.2222m 
  485.72525m  700.0000m  110.7659m  797.6851m   13.0807m 
  485.82525m  700.0000m  110.7554m  797.8160m   12.9393m 
  485.92525m  700.0000m  110.7449m  797.9470m   12.7979m 
  486.02525m  700.0000m  110.7344m  798.0779m   12.6565m 
  486.12525m  700.0000m  110.7239m  798.2089m   12.5150m 
  486.22525m  700.0000m  110.7135m  798.3398m   12.3736m 
  486.32525m  700.0000m  110.7030m  798.4708m   12.2322m 
  486.42525m  700.0000m  110.6926m  798.6018m   12.0908m 
  486.52525m  700.0000m  110.6821m  798.7327m   11.9494m 
  486.62525m  700.0000m  110.6717m  798.8637m   11.8079m 
  486.72525m  700.0000m  110.6613m  798.9947m   11.6665m 
  486.82525m  700.0000m  110.6509m  799.1257m   11.5251m 
  486.92525m  700.0000m  110.6405m  799.2568m   11.3837m 
  487.02525m  700.0000m  110.6301m  799.3878m   11.2423m 
  487.12525m  700.0000m  110.6197m  799.5188m   11.1008m 
  487.22525m  700.0000m  110.6093m  799.6498m   10.9594m 
  487.32525m  700.0000m  110.5989m  799.7809m   10.8180m 
  487.42525m  700.0000m  110.5885m  799.9119m   10.6766m 
  487.52525m  700.0000m  110.5782m  800.0430m   10.5352m 
  487.62525m  700.0000m  110.5678m  800.1741m   10.3937m 
  487.72525m  700.0000m  110.5575m  800.3052m   10.2523m 
  487.82525m  700.0000m  110.5472m  800.4362m   10.1109m 
  487.92525m  700.0000m  110.5368m  800.5673m    9.9695m 
  488.02525m  700.0000m  110.5265m  800.6984m    9.8280m 
  488.12525m  700.0000m  110.5162m  800.8295m    9.6866m 
  488.22525m  700.0000m  110.5059m  800.9607m    9.5452m 
  488.32525m  700.0000m  110.4956m  801.0918m    9.4038m 
  488.42525m  700.0000m  110.4853m  801.2229m    9.2624m 
  488.52525m  700.0000m  110.4750m  801.3541m    9.1209m 
  488.62525m  700.0000m  110.4647m  801.4852m    8.9795m 
  488.72525m  700.0000m  110.4545m  801.6164m    8.8381m 
  488.82525m  700.0000m  110.4442m  801.7475m    8.6967m 
  488.92525m  700.0000m  110.4340m  801.8787m    8.5553m 
  489.02525m  700.0000m  110.4237m  802.0099m    8.4138m 
  489.12525m  700.0000m  110.4135m  802.1411m    8.2724m 
  489.22525m  700.0000m  110.4033m  802.2723m    8.1310m 
  489.32525m  700.0000m  110.3931m  802.4035m    7.9896m 
  489.42525m  700.0000m  110.3828m  802.5347m    7.8481m 
  489.52525m  700.0000m  110.3726m  802.6659m    7.7067m 
  489.62525m  700.0000m  110.3624m  802.7971m    7.5653m 
  489.72525m  700.0000m  110.3523m  802.9283m    7.4239m 
  489.82525m  700.0000m  110.3421m  803.0596m    7.2825m 
  489.92525m  700.0000m  110.3319m  803.1908m    7.1410m 
  490.02525m  700.0000m  110.3217m  803.3221m    6.9996m 
  490.12525m  700.0000m  110.3116m  803.4534m    6.8582m 
  490.22525m  700.0000m  110.3014m  803.5846m    6.7168m 
  490.32525m  700.0000m  110.2913m  803.7159m    6.5754m 
  490.42525m  700.0000m  110.2812m  803.8472m    6.4339m 
  490.52525m  700.0000m  110.2710m  803.9785m    6.2925m 
  490.62525m  700.0000m  110.2609m  804.1098m    6.1511m 
  490.72525m  700.0000m  110.2508m  804.2411m    6.0097m 
  490.82525m  700.0000m  110.2407m  804.3724m    5.8682m 
  490.92525m  700.0000m  110.2306m  804.5037m    5.7268m 
  491.02525m  700.0000m  110.2205m  804.6351m    5.5854m 
  491.12525m  700.0000m  110.2104m  804.7664m    5.4440m 
  491.22525m  700.0000m  110.2004m  804.8978m    5.3026m 
  491.32525m  700.0000m  110.1903m  805.0291m    5.1611m 
  491.42525m  700.0000m  110.1802m  805.1605m    5.0197m 
  491.52525m  700.0000m  110.1702m  805.2919m    4.8783m 
  491.62525m  700.0000m  110.1601m  805.4232m    4.7369m 
  491.72525m  700.0000m  110.1501m  805.5546m    4.5955m 
  491.82525m  700.0000m  110.1401m  805.6860m    4.4540m 
  491.92525m  700.0000m  110.1301m  805.8174m    4.3126m 
  492.02525m  700.0000m  110.1200m  805.9488m    4.1712m 
  492.12525m  700.0000m  110.1100m  806.0802m    4.0298m 
  492.22525m  700.0000m  110.1000m  806.2117m    3.8884m 
  492.32525m  700.0000m  110.0900m  806.3431m    3.7469m 
  492.42525m  700.0000m  110.0801m  806.4745m    3.6055m 
  492.52525m  700.0000m  110.0701m  806.6060m    3.4641m 
  492.62525m  700.0000m  110.0601m  806.7374m    3.3227m 
  492.72525m  700.0000m  110.0502m  806.8689m    3.1812m 
  492.82525m  700.0000m  110.0402m  807.0004m    3.0398m 
  492.92525m  700.0000m  110.0303m  807.1318m    2.8984m 
  493.02525m  700.0000m  110.0203m  807.2633m    2.7570m 
  493.12525m  700.0000m  110.0104m  807.3948m    2.6156m 
  493.22525m  700.0000m  110.0005m  807.5263m    2.4741m 
  493.32525m  700.0000m  109.9906m  807.6578m    2.3327m 
  493.42525m  700.0000m  109.9807m  807.7893m    2.1913m 
  493.52525m  700.0000m  109.9708m  807.9209m    2.0499m 
  493.62525m  700.0000m  109.9609m  808.0524m    1.9085m 
  493.72525m  700.0000m  109.9510m  808.1839m    1.7670m 
  493.82525m  700.0000m  109.9411m  808.3155m    1.6256m 
  493.92525m  700.0000m  109.9312m  808.4470m    1.4842m 
  494.02525m  700.0000m  109.9214m  808.5786m    1.3428m 
  494.12525m  700.0000m  109.9115m  808.7101m    1.2013m 
  494.22525m  700.0000m  109.9017m  808.8417m    1.0599m 
  494.32525m  700.0000m  109.8918m  808.9733m  918.5052u 
  494.42525m  700.0000m  109.8820m  809.1049m  777.0839u 
  494.52525m  700.0000m  109.8722m  809.2365m  635.6627u 
  494.62525m  700.0000m  109.8623m  809.3681m  494.2414u 
  494.72525m  700.0000m  109.8525m  809.4997m  352.8201u 
  494.82525m  700.0000m  109.8427m  809.6313m  211.3988u 
  494.92525m  700.0000m  109.8329m  809.7629m   69.9776u 
y
 max_1= 207.5839m    at=-243.6747m
             from=-494.9747m    to= 494.9253m
 max_2= 207.5839m    at= 243.6253m
             from=-494.9747m    to= 494.9253m
 snm= 146.7840m
1****** HSPICE -- Q-2020.03-SP2-2 linux64 (Nov  1 2020) ******                  
 ******  
 .title noise margin in read operation

 ****** operating point information tnom=  25.000 temp=  25.000 ******
 ****** operating point status is all       simulation time is     0.     
    node    =voltage      node    =voltage      node    =voltage

 +0:bl      = 700.0000m 0:blb     = 700.0000m 0:gl      = 363.7068m
 +0:gr      = 363.7068m 0:q       = 363.7068m 0:qb      = 363.7068m
 +0:u       =   0.      0:v1      = 514.3590m 0:v2      = 514.3590m
 +0:vdd     = 700.0000m 0:wl      = 700.0000m 0:x       = 604.9467m


 **** voltage sources

 subckt                                   
 element  0:vu       0:vvdd     0:vwl     
  volts      0.       700.0000m  700.0000m
  current    0.        -1.4770u  -96.8966f
  power      0.         1.0339u   67.8276f

     total voltage source power dissipation=    1.0339u       watts



 **** voltage-controlled voltage sources


 subckt                                              
 element  0:eli      0:ev1      0:eri      0:ev2     
  volts    363.7068m  514.3590m  363.7068m  514.3590m
  current  -12.5800f    0.       -12.5800f    0.     





 **** mosfets


 subckt                                                                    
 element  0:mpr      0:mnr      0:mpl      0:mnl      0:mnpr     0:mnpl    
 model    0:pmos_sra 0:nmos_sra 0:pmos_sra 0:nmos_sra 0:nmos_sra 0:nmos_sra
 region   Subth      Subth      Subth      Subth      Subth      Subth     
  id      -738.4793n    1.2290u -738.4793n    1.2290u  490.5558n  490.5558n
  ibs        0.         0.         0.         0.         0.         0.     
  ibd        0.         0.         0.         0.         0.         0.     
  vgs     -336.2932m  363.7068m -336.2932m  363.7068m  336.2932m  336.2932m
  vds     -336.2932m  363.7068m -336.2932m  363.7068m  336.2932m  336.2932m
  vbs      -95.0533m  604.9467m  -95.0533m  604.9467m  241.2400m  241.2400m
  vth     -342.4253m  410.8270m -342.4253m  410.8270m  411.0046m  411.0046m
  vdsat    -94.8533m   78.5443m  -94.8533m   78.5443m   74.2920m   74.2920m
  vod        6.1321m  -47.1202m    6.1321m  -47.1202m  -74.7113m  -74.7113m
  beta       2.5635m    6.7760m    2.5635m    6.7760m    6.7760m    6.7760m
  gam eff    0.         0.         0.         0.         0.         0.     
  gm        18.6070u   38.0625u   18.6070u   38.0625u   17.0018u   17.0018u
  gds      491.0319n  630.2472n  491.0319n  630.2472n  282.8631n  282.8631n
  gmb        7.5498p   27.3031p    7.5498p   27.3031p    6.3687p    6.3687p
  cdtot     10.7997a   21.7415a   10.7997a   21.7415a   21.7443a   21.7443a
  cgtot     35.3560a   56.4009a   35.3560a   56.4009a   49.8931a   49.8931a
  cstot     19.7602a   30.4752a   19.7602a   30.4752a   26.1063a   26.1063a
  cbtot      0.         0.         0.         0.         0.         0.     
  cgs       24.7222a   34.7124a   24.7222a   34.7124a   28.1777a   28.1777a
  cgd       10.6339a   21.6885a   10.6339a   21.6885a   21.7154a   21.7154a




          ***** job concluded
 ******  
 .title noise margin in read operation

 ****** job statistics summary tnom=  25.000 temp=  25.000 ******
  
 ******  Machine Information  ******
 CPU:
 model name	: AMD EPYC 7713 64-Core Processor
 cpu MHz	: 1500.000
  
 OS:
 Linux version 3.10.0-1160.88.1.el7.x86_64 (mockbuild@kbuilder.bsys.centos.org) (gcc version 4.8.5 20150623 (Red Hat 4.8.5-44) (GCC) ) #1 SMP Tue Mar 7 15:41:52 UTC 2023


  ******  HSPICE Threads Information  ******

  Command Line Threads Count :     1
  Available CPU Count        :   256
  Actual Threads Count       :     1


  ******  Circuit Statistics  ******
  # nodes       =      13 # elements   =      15
  # resistors   =       0 # capacitors =       2 # inductors   =       0
  # mutual_inds =       0 # vccs       =       0 # vcvs        =       4
  # cccs        =       0 # ccvs       =       0 # volt_srcs   =       3
  # curr_srcs   =       0 # diodes     =       0 # bjts        =       0
  # jfets       =       0 # mosfets    =       6 # U elements  =       0
  # T elements  =       0 # W elements =       0 # B elements  =       0
  # S elements  =       0 # P elements =       0 # va device   =       0
  # vector_srcs =       0 # N elements =       0


  ******  Runtime Statistics (seconds)  ******

  analysis           time    # points   tot. iter  conv.iter
  op point           0.01           1           7
  dc sweep           0.88        9900       29712
  readin             0.01
  errchk             0.01
  setup              0.00
  output             0.00


           peak memory used        406.02 megabytes
           total cpu time            0.98 seconds
           total elapsed time        1.14 seconds
           job started at     14:00:22 03/23/2025
           job ended   at     14:00:23 03/23/2025
           job total runtime         1.14 seconds


 lic: Release hspice token(s) 
 lic: total license checkout elapse time:        0.15(s)
