 ****** HSPICE -- Q-2020.03-SP2-2 linux64 (Nov  1 2020) ******                  
  Copyright (c) 1986 - 2025 by Synopsys, Inc. All Rights Reserved.              
  This software and the associated documentation are proprietary
  to Synopsys, Inc. This software may only be used in accordance
  with the terms and conditions of a written license agreement with
  Synopsys, Inc. All other use, reproduction, or distribution of
  this software is strictly prohibited.
  Input File: SRAM_SNM_TT.sp                                                    
  Command line options: /RAID2/cad/synopsys/hspice/2020.03-sp2-2/hspice/linux64/hspice -i SRAM_SNM_TT.sp -o SRAM_SNM_TT.lis
  Start time: Wed Mar 19 20:32:40 2025
 lic:  
 lic: FLEXlm: SDK_12.6 
 lic: USER:   es25MCS042           HOSTNAME: ee28 
 lic: HOSTID: "d85ed3efc19a"       PID:      40887 
 lic: Using FLEXlm license file: 
 lic: 26585@lshc 
 lic: Checkout 1 hspice 
 lic: License/Maintenance for hspice will expire on 14-may-2025/2024.09 
 lic: 227(in_use)/1100(total) FLOATING license(s) on SERVER 26585@lshc 
 lic:   
  
      
             
 Warning:'Floating bulk' occurs 1 times
 Summary of floating bulk:
 -----------------------
 |Node      |Device    |
 |----------+----------|
 |x         |mpr       |
 -----------------------
              
 *****************************************************************
 ******  option summary
 ******
 runlvl  = 3         bypass  = 2.0000    
 ******
 .title noise margin in hold operation

 ****** dc transfer curves tnom=  25.000 temp=  25.000 ******
x

 volt         voltage    voltage    voltage    voltage   
             0          q          gr         vdd        
 -707.10678m    0.        22.1047n    1.0000   700.0000m 
 -707.00678m    0.        22.0921n  999.8586m  700.0000m 
 -706.90678m    0.        22.0794n  999.7172m  700.0000m 
 -706.80678m    0.        22.0668n  999.5758m  700.0000m 
 -706.70678m    0.        22.0542n  999.4343m  700.0000m 
 -706.60678m    0.        22.0416n  999.2929m  700.0000m 
 -706.50678m    0.        22.0290n  999.1515m  700.0000m 
 -706.40678m    0.        22.0164n  999.0101m  700.0000m 
 -706.30678m    0.        22.0038n  998.8687m  700.0000m 
 -706.20678m    0.        21.9912n  998.7272m  700.0000m 
 -706.10678m    0.        21.9786n  998.5858m  700.0000m 
 -706.00678m    0.        21.9660n  998.4444m  700.0000m 
 -705.90678m    0.        21.9534n  998.3030m  700.0000m 
 -705.80678m    0.        21.9408n  998.1615m  700.0000m 
 -705.70678m    0.        21.9282n  998.0201m  700.0000m 
 -705.60678m    0.        21.9156n  997.8787m  700.0000m 
 -705.50678m    0.        21.9030n  997.7373m  700.0000m 
 -705.40678m    0.        21.8905n  997.5959m  700.0000m 
 -705.30678m    0.        21.8779n  997.4544m  700.0000m 
 -705.20678m    0.        21.8653n  997.3130m  700.0000m 
 -705.10678m    0.        21.8527n  997.1716m  700.0000m 
 -705.00678m    0.        21.8402n  997.0302m  700.0000m 
 -704.90678m    0.        21.8276n  996.8888m  700.0000m 
 -704.80678m    0.        21.8150n  996.7473m  700.0000m 
 -704.70678m    0.        21.8025n  996.6059m  700.0000m 
 -704.60678m    0.        21.7899n  996.4645m  700.0000m 
 -704.50678m    0.        21.7774n  996.3231m  700.0000m 
 -704.40678m    0.        21.7648n  996.1816m  700.0000m 
 -704.30678m    0.        21.7523n  996.0402m  700.0000m 
 -704.20678m    0.        21.7397n  995.8988m  700.0000m 
 -704.10678m    0.        21.7272n  995.7574m  700.0000m 
 -704.00678m    0.        21.7146n  995.6160m  700.0000m 
 -703.90678m    0.        21.7021n  995.4745m  700.0000m 
 -703.80678m    0.        21.6896n  995.3331m  700.0000m 
 -703.70678m    0.        21.6770n  995.1917m  700.0000m 
 -703.60678m    0.        21.6645n  995.0503m  700.0000m 
 -703.50678m    0.        21.6520n  994.9089m  700.0000m 
 -703.40678m    0.        21.6395n  994.7674m  700.0000m 
 -703.30678m    0.        21.6269n  994.6260m  700.0000m 
 -703.20678m    0.        21.6144n  994.4846m  700.0000m 
 -703.10678m    0.        21.6019n  994.3432m  700.0000m 
 -703.00678m    0.        21.5894n  994.2017m  700.0000m 
 -702.90678m    0.        21.5769n  994.0603m  700.0000m 
 -702.80678m    0.        21.5644n  993.9189m  700.0000m 
 -702.70678m    0.        21.5519n  993.7775m  700.0000m 
 -702.60678m    0.        21.5394n  993.6361m  700.0000m 
 -702.50678m    0.        21.5269n  993.4946m  700.0000m 
 -702.40678m    0.        21.5144n  993.3532m  700.0000m 
 -702.30678m    0.        21.5019n  993.2118m  700.0000m 
 -702.20678m    0.        21.4894n  993.0704m  700.0000m 
 -702.10678m    0.        21.4769n  992.9290m  700.0000m 
 -702.00678m    0.        21.4644n  992.7875m  700.0000m 
 -701.90678m    0.        21.4519n  992.6461m  700.0000m 
 -701.80678m    0.        21.4394n  992.5047m  700.0000m 
 -701.70678m    0.        21.4270n  992.3633m  700.0000m 
 -701.60678m    0.        21.4145n  992.2218m  700.0000m 
 -701.50678m    0.        21.4020n  992.0804m  700.0000m 
 -701.40678m    0.        21.3895n  991.9390m  700.0000m 
 -701.30678m    0.        21.3771n  991.7976m  700.0000m 
 -701.20678m    0.        21.3646n  991.6562m  700.0000m 
 -701.10678m    0.        21.3521n  991.5147m  700.0000m 
 -701.00678m    0.        21.3397n  991.3733m  700.0000m 
 -700.90678m    0.        21.3272n  991.2319m  700.0000m 
 -700.80678m    0.        21.3148n  991.0905m  700.0000m 
 -700.70678m    0.        21.3023n  990.9491m  700.0000m 
 -700.60678m    0.        21.2899n  990.8076m  700.0000m 
 -700.50678m    0.        21.2774n  990.6662m  700.0000m 
 -700.40678m    0.        21.2650n  990.5248m  700.0000m 
 -700.30678m    0.        21.2525n  990.3834m  700.0000m 
 -700.20678m    0.        21.2401n  990.2419m  700.0000m 
 -700.10678m    0.        21.2277n  990.1005m  700.0000m 
 -700.00678m    0.        21.2152n  989.9591m  700.0000m 
 -699.90678m    0.        21.2028n  989.8177m  700.0000m 
 -699.80678m    0.        21.1904n  989.6763m  700.0000m 
 -699.70678m    0.        21.1779n  989.5348m  700.0000m 
 -699.60678m    0.        21.1655n  989.3934m  700.0000m 
 -699.50678m    0.        21.1531n  989.2520m  700.0000m 
 -699.40678m    0.        21.1407n  989.1106m  700.0000m 
 -699.30678m    0.        21.1283n  988.9692m  700.0000m 
 -699.20678m    0.        21.1159n  988.8277m  700.0000m 
 -699.10678m    0.        21.1034n  988.6863m  700.0000m 
 -699.00678m    0.        21.0910n  988.5449m  700.0000m 
 -698.90678m    0.        21.0786n  988.4035m  700.0000m 
 -698.80678m    0.        21.0662n  988.2620m  700.0000m 
 -698.70678m    0.        21.0538n  988.1206m  700.0000m 
 -698.60678m    0.        21.0414n  987.9792m  700.0000m 
 -698.50678m    0.        21.0290n  987.8378m  700.0000m 
 -698.40678m    0.        21.0166n  987.6964m  700.0000m 
 -698.30678m    0.        21.0043n  987.5549m  700.0000m 
 -698.20678m    0.        20.9919n  987.4135m  700.0000m 
 -698.10678m    0.        20.9795n  987.2721m  700.0000m 
 -698.00678m    0.        20.9671n  987.1307m  700.0000m 
 -697.90678m    0.        20.9547n  986.9893m  700.0000m 
 -697.80678m    0.        20.9423n  986.8478m  700.0000m 
 -697.70678m    0.        20.9300n  986.7064m  700.0000m 
 -697.60678m    0.        20.9176n  986.5650m  700.0000m 
 -697.50678m    0.        20.9052n  986.4236m  700.0000m 
 -697.40678m    0.        20.8928n  986.2821m  700.0000m 
 -697.30678m    0.        20.8805n  986.1407m  700.0000m 
 -697.20678m    0.        20.8681n  985.9993m  700.0000m 
 -697.10678m    0.        20.8558n  985.8579m  700.0000m 
 -697.00678m    0.        20.8434n  985.7165m  700.0000m 
 -696.90678m    0.        20.8310n  985.5750m  700.0000m 
 -696.80678m    0.        20.8187n  985.4336m  700.0000m 
 -696.70678m    0.        20.8063n  985.2922m  700.0000m 
 -696.60678m    0.        20.7940n  985.1508m  700.0000m 
 -696.50678m    0.        20.7816n  985.0094m  700.0000m 
 -696.40678m    0.        20.7693n  984.8679m  700.0000m 
 -696.30678m    0.        20.7570n  984.7265m  700.0000m 
 -696.20678m    0.        20.7446n  984.5851m  700.0000m 
 -696.10678m    0.        20.7323n  984.4437m  700.0000m 
 -696.00678m    0.        20.7199n  984.3023m  700.0000m 
 -695.90678m    0.        20.7076n  984.1608m  700.0000m 
 -695.80678m    0.        20.6953n  984.0194m  700.0000m 
 -695.70678m    0.        20.6830n  983.8780m  700.0000m 
 -695.60678m    0.        20.6706n  983.7366m  700.0000m 
 -695.50678m    0.        20.6583n  983.5951m  700.0000m 
 -695.40678m    0.        20.6460n  983.4537m  700.0000m 
 -695.30678m    0.        20.6337n  983.3123m  700.0000m 
 -695.20678m    0.        20.6214n  983.1709m  700.0000m 
 -695.10678m    0.        20.6090n  983.0295m  700.0000m 
 -695.00678m    0.        20.5967n  982.8880m  700.0000m 
 -694.90678m    0.        20.5844n  982.7466m  700.0000m 
 -694.80678m    0.        20.5721n  982.6052m  700.0000m 
 -694.70678m    0.        20.5598n  982.4638m  700.0000m 
 -694.60678m    0.        20.5475n  982.3224m  700.0000m 
 -694.50678m    0.        20.5352n  982.1809m  700.0000m 
 -694.40678m    0.        20.5229n  982.0395m  700.0000m 
 -694.30678m    0.        20.5106n  981.8981m  700.0000m 
 -694.20678m    0.        20.4983n  981.7567m  700.0000m 
 -694.10678m    0.        20.4860n  981.6152m  700.0000m 
 -694.00678m    0.        20.4737n  981.4738m  700.0000m 
 -693.90678m    0.        20.4615n  981.3324m  700.0000m 
 -693.80678m    0.        20.4492n  981.1910m  700.0000m 
 -693.70678m    0.        20.4369n  981.0496m  700.0000m 
 -693.60678m    0.        20.4246n  980.9081m  700.0000m 
 -693.50678m    0.        20.4123n  980.7667m  700.0000m 
 -693.40678m    0.        20.4001n  980.6253m  700.0000m 
 -693.30678m    0.        20.3878n  980.4839m  700.0000m 
 -693.20678m    0.        20.3755n  980.3425m  700.0000m 
 -693.10678m    0.        20.3633n  980.2010m  700.0000m 
 -693.00678m    0.        20.3510n  980.0596m  700.0000m 
 -692.90678m    0.        20.3387n  979.9182m  700.0000m 
 -692.80678m    0.        20.3265n  979.7768m  700.0000m 
 -692.70678m    0.        20.3142n  979.6353m  700.0000m 
 -692.60678m    0.        20.3020n  979.4939m  700.0000m 
 -692.50678m    0.        20.2897n  979.3525m  700.0000m 
 -692.40678m    0.        20.2775n  979.2111m  700.0000m 
 -692.30678m    0.        20.2652n  979.0697m  700.0000m 
 -692.20678m    0.        20.2530n  978.9282m  700.0000m 
 -692.10678m    0.        20.2407n  978.7868m  700.0000m 
 -692.00678m    0.        20.2285n  978.6454m  700.0000m 
 -691.90678m    0.        20.2162n  978.5040m  700.0000m 
 -691.80678m    0.        20.2040n  978.3626m  700.0000m 
 -691.70678m    0.        20.1918n  978.2211m  700.0000m 
 -691.60678m    0.        20.1795n  978.0797m  700.0000m 
 -691.50678m    0.        20.1673n  977.9383m  700.0000m 
 -691.40678m    0.        20.1551n  977.7969m  700.0000m 
 -691.30678m    0.        20.1428n  977.6554m  700.0000m 
 -691.20678m    0.        20.1306n  977.5140m  700.0000m 
 -691.10678m    0.        20.1184n  977.3726m  700.0000m 
 -691.00678m    0.        20.1062n  977.2312m  700.0000m 
 -690.90678m    0.        20.0939n  977.0898m  700.0000m 
 -690.80678m    0.        20.0817n  976.9483m  700.0000m 
 -690.70678m    0.        20.0695n  976.8069m  700.0000m 
 -690.60678m    0.        20.0573n  976.6655m  700.0000m 
 -690.50678m    0.        20.0451n  976.5241m  700.0000m 
 -690.40678m    0.        20.0329n  976.3827m  700.0000m 
 -690.30678m    0.        20.0207n  976.2412m  700.0000m 
 -690.20678m    0.        20.0085n  976.0998m  700.0000m 
 -690.10678m    0.        19.9963n  975.9584m  700.0000m 
 -690.00678m    0.        19.9841n  975.8170m  700.0000m 
 -689.90678m    0.        19.9719n  975.6755m  700.0000m 
 -689.80678m    0.        19.9597n  975.5341m  700.0000m 
 -689.70678m    0.        19.9475n  975.3927m  700.0000m 
 -689.60678m    0.        19.9353n  975.2513m  700.0000m 
 -689.50678m    0.        19.9231n  975.1099m  700.0000m 
 -689.40678m    0.        19.9109n  974.9684m  700.0000m 
 -689.30678m    0.        19.8987n  974.8270m  700.0000m 
 -689.20678m    0.        19.8866n  974.6856m  700.0000m 
 -689.10678m    0.        19.8744n  974.5442m  700.0000m 
 -689.00678m    0.        19.8622n  974.4028m  700.0000m 
 -688.90678m    0.        19.8500n  974.2613m  700.0000m 
 -688.80678m    0.        19.8379n  974.1199m  700.0000m 
 -688.70678m    0.        19.8257n  973.9785m  700.0000m 
 -688.60678m    0.        19.8135n  973.8371m  700.0000m 
 -688.50678m    0.        19.8013n  973.6956m  700.0000m 
 -688.40678m    0.        19.7892n  973.5542m  700.0000m 
 -688.30678m    0.        19.7770n  973.4128m  700.0000m 
 -688.20678m    0.        19.7649n  973.2714m  700.0000m 
 -688.10678m    0.        19.7527n  973.1300m  700.0000m 
 -688.00678m    0.        19.7405n  972.9885m  700.0000m 
 -687.90678m    0.        19.7284n  972.8471m  700.0000m 
 -687.80678m    0.        19.7162n  972.7057m  700.0000m 
 -687.70678m    0.        19.7041n  972.5643m  700.0000m 
 -687.60678m    0.        19.6919n  972.4229m  700.0000m 
 -687.50678m    0.        19.6798n  972.2814m  700.0000m 
 -687.40678m    0.        19.6676n  972.1400m  700.0000m 
 -687.30678m    0.        19.6555n  971.9986m  700.0000m 
 -687.20678m    0.        19.6433n  971.8572m  700.0000m 
 -687.10678m    0.        19.6312n  971.7157m  700.0000m 
 -687.00678m    0.        19.6191n  971.5743m  700.0000m 
 -686.90678m    0.        19.6069n  971.4329m  700.0000m 
 -686.80678m    0.        19.5948n  971.2915m  700.0000m 
 -686.70678m    0.        19.5827n  971.1501m  700.0000m 
 -686.60678m    0.        19.5705n  971.0086m  700.0000m 
 -686.50678m    0.        19.5584n  970.8672m  700.0000m 
 -686.40678m    0.        19.5463n  970.7258m  700.0000m 
 -686.30678m    0.        19.5342n  970.5844m  700.0000m 
 -686.20678m    0.        19.5220n  970.4430m  700.0000m 
 -686.10678m    0.        19.5099n  970.3015m  700.0000m 
 -686.00678m    0.        19.4978n  970.1601m  700.0000m 
 -685.90678m    0.        19.4857n  970.0187m  700.0000m 
 -685.80678m    0.        19.4736n  969.8773m  700.0000m 
 -685.70678m    0.        19.4615n  969.7358m  700.0000m 
 -685.60678m    0.        19.4494n  969.5944m  700.0000m 
 -685.50678m    0.        19.4373n  969.4530m  700.0000m 
 -685.40678m    0.        19.4251n  969.3116m  700.0000m 
 -685.30678m    0.        19.4130n  969.1702m  700.0000m 
 -685.20678m    0.        19.4009n  969.0287m  700.0000m 
 -685.10678m    0.        19.3888n  968.8873m  700.0000m 
 -685.00678m    0.        19.3767n  968.7459m  700.0000m 
 -684.90678m    0.        19.3646n  968.6045m  700.0000m 
 -684.80678m    0.        19.3526n  968.4631m  700.0000m 
 -684.70678m    0.        19.3405n  968.3216m  700.0000m 
 -684.60678m    0.        19.3284n  968.1802m  700.0000m 
 -684.50678m    0.        19.3163n  968.0388m  700.0000m 
 -684.40678m    0.        19.3042n  967.8974m  700.0000m 
 -684.30678m    0.        19.2921n  967.7560m  700.0000m 
 -684.20678m    0.        19.2800n  967.6145m  700.0000m 
 -684.10678m    0.        19.2679n  967.4731m  700.0000m 
 -684.00678m    0.        19.2559n  967.3317m  700.0000m 
 -683.90678m    0.        19.2438n  967.1903m  700.0000m 
 -683.80678m    0.        19.2317n  967.0488m  700.0000m 
 -683.70678m    0.        19.2196n  966.9074m  700.0000m 
 -683.60678m    0.        19.2076n  966.7660m  700.0000m 
 -683.50678m    0.        19.1955n  966.6246m  700.0000m 
 -683.40678m    0.        19.1834n  966.4832m  700.0000m 
 -683.30678m    0.        19.1714n  966.3417m  700.0000m 
 -683.20678m    0.        19.1593n  966.2003m  700.0000m 
 -683.10678m    0.        19.1472n  966.0589m  700.0000m 
 -683.00678m    0.        19.1352n  965.9175m  700.0000m 
 -682.90678m    0.        19.1231n  965.7761m  700.0000m 
 -682.80678m    0.        19.1111n  965.6346m  700.0000m 
 -682.70678m    0.        19.0990n  965.4932m  700.0000m 
 -682.60678m    0.        19.0870n  965.3518m  700.0000m 
 -682.50678m    0.        19.0749n  965.2104m  700.0000m 
 -682.40678m    0.        19.0629n  965.0689m  700.0000m 
 -682.30678m    0.        19.0508n  964.9275m  700.0000m 
 -682.20678m    0.        19.0388n  964.7861m  700.0000m 
 -682.10678m    0.        19.0267n  964.6447m  700.0000m 
 -682.00678m    0.        19.0147n  964.5033m  700.0000m 
 -681.90678m    0.        19.0027n  964.3618m  700.0000m 
 -681.80678m    0.        18.9906n  964.2204m  700.0000m 
 -681.70678m    0.        18.9786n  964.0790m  700.0000m 
 -681.60678m    0.        18.9665n  963.9376m  700.0000m 
 -681.50678m    0.        18.9545n  963.7962m  700.0000m 
 -681.40678m    0.        18.9425n  963.6547m  700.0000m 
 -681.30678m    0.        18.9305n  963.5133m  700.0000m 
 -681.20678m    0.        18.9184n  963.3719m  700.0000m 
 -681.10678m    0.        18.9064n  963.2305m  700.0000m 
 -681.00678m    0.        18.8944n  963.0890m  700.0000m 
 -680.90678m    0.        18.8824n  962.9476m  700.0000m 
 -680.80678m    0.        18.8703n  962.8062m  700.0000m 
 -680.70678m    0.        18.8583n  962.6648m  700.0000m 
 -680.60678m    0.        18.8463n  962.5234m  700.0000m 
 -680.50678m    0.        18.8343n  962.3819m  700.0000m 
 -680.40678m    0.        18.8223n  962.2405m  700.0000m 
 -680.30678m    0.        18.8103n  962.0991m  700.0000m 
 -680.20678m    0.        18.7983n  961.9577m  700.0000m 
 -680.10678m    0.        18.7863n  961.8163m  700.0000m 
 -680.00678m    0.        18.7742n  961.6748m  700.0000m 
 -679.90678m    0.        18.7622n  961.5334m  700.0000m 
 -679.80678m    0.        18.7502n  961.3920m  700.0000m 
 -679.70678m    0.        18.7382n  961.2506m  700.0000m 
 -679.60678m    0.        18.7262n  961.1091m  700.0000m 
 -679.50678m    0.        18.7142n  960.9677m  700.0000m 
 -679.40678m    0.        18.7022n  960.8263m  700.0000m 
 -679.30678m    0.        18.6903n  960.6849m  700.0000m 
 -679.20678m    0.        18.6783n  960.5435m  700.0000m 
 -679.10678m    0.        18.6663n  960.4020m  700.0000m 
 -679.00678m    0.        18.6543n  960.2606m  700.0000m 
 -678.90678m    0.        18.6423n  960.1192m  700.0000m 
 -678.80678m    0.        18.6303n  959.9778m  700.0000m 
 -678.70678m    0.        18.6183n  959.8364m  700.0000m 
 -678.60678m    0.        18.6064n  959.6949m  700.0000m 
 -678.50678m    0.        18.5944n  959.5535m  700.0000m 
 -678.40678m    0.        18.5824n  959.4121m  700.0000m 
 -678.30678m    0.        18.5704n  959.2707m  700.0000m 
 -678.20678m    0.        18.5584n  959.1292m  700.0000m 
 -678.10678m    0.        18.5465n  958.9878m  700.0000m 
 -678.00678m    0.        18.5345n  958.8464m  700.0000m 
 -677.90678m    0.        18.5225n  958.7050m  700.0000m 
 -677.80678m    0.        18.5106n  958.5636m  700.0000m 
 -677.70678m    0.        18.4986n  958.4221m  700.0000m 
 -677.60678m    0.        18.4866n  958.2807m  700.0000m 
 -677.50678m    0.        18.4747n  958.1393m  700.0000m 
 -677.40678m    0.        18.4627n  957.9979m  700.0000m 
 -677.30678m    0.        18.4508n  957.8565m  700.0000m 
 -677.20678m    0.        18.4388n  957.7150m  700.0000m 
 -677.10678m    0.        18.4268n  957.5736m  700.0000m 
 -677.00678m    0.        18.4149n  957.4322m  700.0000m 
 -676.90678m    0.        18.4029n  957.2908m  700.0000m 
 -676.80678m    0.        18.3910n  957.1493m  700.0000m 
 -676.70678m    0.        18.3790n  957.0079m  700.0000m 
 -676.60678m    0.        18.3671n  956.8665m  700.0000m 
 -676.50678m    0.        18.3551n  956.7251m  700.0000m 
 -676.40678m    0.        18.3432n  956.5837m  700.0000m 
 -676.30678m    0.        18.3313n  956.4422m  700.0000m 
 -676.20678m    0.        18.3193n  956.3008m  700.0000m 
 -676.10678m    0.        18.3074n  956.1594m  700.0000m 
 -676.00678m    0.        18.2954n  956.0180m  700.0000m 
 -675.90678m    0.        18.2835n  955.8766m  700.0000m 
 -675.80678m    0.        18.2716n  955.7351m  700.0000m 
 -675.70678m    0.        18.2596n  955.5937m  700.0000m 
 -675.60678m    0.        18.2477n  955.4523m  700.0000m 
 -675.50678m    0.        18.2358n  955.3109m  700.0000m 
 -675.40678m    0.        18.2238n  955.1694m  700.0000m 
 -675.30678m    0.        18.2119n  955.0280m  700.0000m 
 -675.20678m    0.        18.2000n  954.8866m  700.0000m 
 -675.10678m    0.        18.1881n  954.7452m  700.0000m 
 -675.00678m    0.        18.1762n  954.6038m  700.0000m 
 -674.90678m    0.        18.1642n  954.4623m  700.0000m 
 -674.80678m    0.        18.1523n  954.3209m  700.0000m 
 -674.70678m    0.        18.1404n  954.1795m  700.0000m 
 -674.60678m    0.        18.1285n  954.0381m  700.0000m 
 -674.50678m    0.        18.1166n  953.8967m  700.0000m 
 -674.40678m    0.        18.1047n  953.7552m  700.0000m 
 -674.30678m    0.        18.0928n  953.6138m  700.0000m 
 -674.20678m    0.        18.0808n  953.4724m  700.0000m 
 -674.10678m    0.        18.0689n  953.3310m  700.0000m 
 -674.00678m    0.        18.0570n  953.1895m  700.0000m 
 -673.90678m    0.        18.0451n  953.0481m  700.0000m 
 -673.80678m    0.        18.0332n  952.9067m  700.0000m 
 -673.70678m    0.        18.0213n  952.7653m  700.0000m 
 -673.60678m    0.        18.0094n  952.6239m  700.0000m 
 -673.50678m    0.        17.9975n  952.4824m  700.0000m 
 -673.40678m    0.        17.9856n  952.3410m  700.0000m 
 -673.30678m    0.        17.9737n  952.1996m  700.0000m 
 -673.20678m    0.        17.9619n  952.0582m  700.0000m 
 -673.10678m    0.        17.9500n  951.9168m  700.0000m 
 -673.00678m    0.        17.9381n  951.7753m  700.0000m 
 -672.90678m    0.        17.9262n  951.6339m  700.0000m 
 -672.80678m    0.        17.9143n  951.4925m  700.0000m 
 -672.70678m    0.        17.9024n  951.3511m  700.0000m 
 -672.60678m    0.        17.8905n  951.2096m  700.0000m 
 -672.50678m    0.        17.8786n  951.0682m  700.0000m 
 -672.40678m    0.        17.8668n  950.9268m  700.0000m 
 -672.30678m    0.        17.8549n  950.7854m  700.0000m 
 -672.20678m    0.        17.8430n  950.6440m  700.0000m 
 -672.10678m    0.        17.8311n  950.5025m  700.0000m 
 -672.00678m    0.        17.8193n  950.3611m  700.0000m 
 -671.90678m    0.        17.8074n  950.2197m  700.0000m 
 -671.80678m    0.        17.7955n  950.0783m  700.0000m 
 -671.70678m    0.        17.7837n  949.9369m  700.0000m 
 -671.60678m    0.        17.7718n  949.7954m  700.0000m 
 -671.50678m    0.        17.7599n  949.6540m  700.0000m 
 -671.40678m    0.        17.7481n  949.5126m  700.0000m 
 -671.30678m    0.        17.7362n  949.3712m  700.0000m 
 -671.20678m    0.        17.7243n  949.2298m  700.0000m 
 -671.10678m    0.        17.7125n  949.0883m  700.0000m 
 -671.00678m    0.        17.7006n  948.9469m  700.0000m 
 -670.90678m    0.        17.6888n  948.8055m  700.0000m 
 -670.80678m    0.        17.6769n  948.6641m  700.0000m 
 -670.70678m    0.        17.6650n  948.5226m  700.0000m 
 -670.60678m    0.        17.6532n  948.3812m  700.0000m 
 -670.50678m    0.        17.6413n  948.2398m  700.0000m 
 -670.40678m    0.        17.6295n  948.0984m  700.0000m 
 -670.30678m    0.        17.6176n  947.9570m  700.0000m 
 -670.20678m    0.        17.6058n  947.8155m  700.0000m 
 -670.10678m    0.        17.5940n  947.6741m  700.0000m 
 -670.00678m    0.        17.5821n  947.5327m  700.0000m 
 -669.90678m    0.        17.5703n  947.3913m  700.0000m 
 -669.80678m    0.        17.5584n  947.2499m  700.0000m 
 -669.70678m    0.        17.5466n  947.1084m  700.0000m 
 -669.60678m    0.        17.5348n  946.9670m  700.0000m 
 -669.50678m    0.        17.5229n  946.8256m  700.0000m 
 -669.40678m    0.        17.5111n  946.6842m  700.0000m 
 -669.30678m    0.        17.4993n  946.5427m  700.0000m 
 -669.20678m    0.        17.4874n  946.4013m  700.0000m 
 -669.10678m    0.        17.4756n  946.2599m  700.0000m 
 -669.00678m    0.        17.4638n  946.1185m  700.0000m 
 -668.90678m    0.        17.4519n  945.9771m  700.0000m 
 -668.80678m    0.        17.4401n  945.8356m  700.0000m 
 -668.70678m    0.        17.4283n  945.6942m  700.0000m 
 -668.60678m    0.        17.4165n  945.5528m  700.0000m 
 -668.50678m    0.        17.4046n  945.4114m  700.0000m 
 -668.40678m    0.        17.3928n  945.2700m  700.0000m 
 -668.30678m    0.        17.3810n  945.1285m  700.0000m 
 -668.20678m    0.        17.3692n  944.9871m  700.0000m 
 -668.10678m    0.        17.3574n  944.8457m  700.0000m 
 -668.00678m    0.        17.3456n  944.7043m  700.0000m 
 -667.90678m    0.        17.3337n  944.5628m  700.0000m 
 -667.80678m    0.        17.3219n  944.4214m  700.0000m 
 -667.70678m    0.        17.3101n  944.2800m  700.0000m 
 -667.60678m    0.        17.2983n  944.1386m  700.0000m 
 -667.50678m    0.        17.2865n  943.9972m  700.0000m 
 -667.40678m    0.        17.2747n  943.8557m  700.0000m 
 -667.30678m    0.        17.2629n  943.7143m  700.0000m 
 -667.20678m    0.        17.2511n  943.5729m  700.0000m 
 -667.10678m    0.        17.2393n  943.4315m  700.0000m 
 -667.00678m    0.        17.2275n  943.2901m  700.0000m 
 -666.90678m    0.        17.2157n  943.1486m  700.0000m 
 -666.80678m    0.        17.2039n  943.0072m  700.0000m 
 -666.70678m    0.        17.1921n  942.8658m  700.0000m 
 -666.60678m    0.        17.1803n  942.7244m  700.0000m 
 -666.50678m    0.        17.1685n  942.5829m  700.0000m 
 -666.40678m    0.        17.1567n  942.4415m  700.0000m 
 -666.30678m    0.        17.1450n  942.3001m  700.0000m 
 -666.20678m    0.        17.1332n  942.1587m  700.0000m 
 -666.10678m    0.        17.1214n  942.0173m  700.0000m 
 -666.00678m    0.        17.1096n  941.8758m  700.0000m 
 -665.90678m    0.        17.0978n  941.7344m  700.0000m 
 -665.80678m    0.        17.0860n  941.5930m  700.0000m 
 -665.70678m    0.        17.0743n  941.4516m  700.0000m 
 -665.60678m    0.        17.0625n  941.3102m  700.0000m 
 -665.50678m    0.        17.0507n  941.1687m  700.0000m 
 -665.40678m    0.        17.0389n  941.0273m  700.0000m 
 -665.30678m    0.        17.0271n  940.8859m  700.0000m 
 -665.20678m    0.        17.0154n  940.7445m  700.0000m 
 -665.10678m    0.        17.0036n  940.6030m  700.0000m 
 -665.00678m    0.        16.9918n  940.4616m  700.0000m 
 -664.90678m    0.        16.9801n  940.3202m  700.0000m 
 -664.80678m    0.        16.9683n  940.1788m  700.0000m 
 -664.70678m    0.        16.9565n  940.0374m  700.0000m 
 -664.60678m    0.        16.9448n  939.8959m  700.0000m 
 -664.50678m    0.        16.9330n  939.7545m  700.0000m 
 -664.40678m    0.        16.9212n  939.6131m  700.0000m 
 -664.30678m    0.        16.9095n  939.4717m  700.0000m 
 -664.20678m    0.        16.8977n  939.3303m  700.0000m 
 -664.10678m    0.        16.8860n  939.1888m  700.0000m 
 -664.00678m    0.        16.8742n  939.0474m  700.0000m 
 -663.90678m    0.        16.8624n  938.9060m  700.0000m 
 -663.80678m    0.        16.8507n  938.7646m  700.0000m 
 -663.70678m    0.        16.8389n  938.6231m  700.0000m 
 -663.60678m    0.        16.8272n  938.4817m  700.0000m 
 -663.50678m    0.        16.8154n  938.3403m  700.0000m 
 -663.40678m    0.        16.8037n  938.1989m  700.0000m 
 -663.30678m    0.        16.7920n  938.0575m  700.0000m 
 -663.20678m    0.        16.7802n  937.9160m  700.0000m 
 -663.10678m    0.        16.7685n  937.7746m  700.0000m 
 -663.00678m    0.        16.7567n  937.6332m  700.0000m 
 -662.90678m    0.        16.7450n  937.4918m  700.0000m 
 -662.80678m    0.        16.7332n  937.3504m  700.0000m 
 -662.70678m    0.        16.7215n  937.2089m  700.0000m 
 -662.60678m    0.        16.7098n  937.0675m  700.0000m 
 -662.50678m    0.        16.6980n  936.9261m  700.0000m 
 -662.40678m    0.        16.6863n  936.7847m  700.0000m 
 -662.30678m    0.        16.6746n  936.6432m  700.0000m 
 -662.20678m    0.        16.6628n  936.5018m  700.0000m 
 -662.10678m    0.        16.6511n  936.3604m  700.0000m 
 -662.00678m    0.        16.6394n  936.2190m  700.0000m 
 -661.90678m    0.        16.6276n  936.0776m  700.0000m 
 -661.80678m    0.        16.6159n  935.9361m  700.0000m 
 -661.70678m    0.        16.6042n  935.7947m  700.0000m 
 -661.60678m    0.        16.5925n  935.6533m  700.0000m 
 -661.50678m    0.        16.5808n  935.5119m  700.0000m 
 -661.40678m    0.        16.5690n  935.3705m  700.0000m 
 -661.30678m    0.        16.5573n  935.2290m  700.0000m 
 -661.20678m    0.        16.5456n  935.0876m  700.0000m 
 -661.10678m    0.        16.5339n  934.9462m  700.0000m 
 -661.00678m    0.        16.5222n  934.8048m  700.0000m 
 -660.90678m    0.        16.5105n  934.6633m  700.0000m 
 -660.80678m    0.        16.4987n  934.5219m  700.0000m 
 -660.70678m    0.        16.4870n  934.3805m  700.0000m 
 -660.60678m    0.        16.4753n  934.2391m  700.0000m 
 -660.50678m    0.        16.4636n  934.0977m  700.0000m 
 -660.40678m    0.        16.4519n  933.9562m  700.0000m 
 -660.30678m    0.        16.4402n  933.8148m  700.0000m 
 -660.20678m    0.        16.4285n  933.6734m  700.0000m 
 -660.10678m    0.        16.4168n  933.5320m  700.0000m 
 -660.00678m    0.        16.4051n  933.3906m  700.0000m 
 -659.90678m    0.        16.3934n  933.2491m  700.0000m 
 -659.80678m    0.        16.3817n  933.1077m  700.0000m 
 -659.70678m    0.        16.3700n  932.9663m  700.0000m 
 -659.60678m    0.        16.3583n  932.8249m  700.0000m 
 -659.50678m    0.        16.3466n  932.6835m  700.0000m 
 -659.40678m    0.        16.3349n  932.5420m  700.0000m 
 -659.30678m    0.        16.3232n  932.4006m  700.0000m 
 -659.20678m    0.        16.3116n  932.2592m  700.0000m 
 -659.10678m    0.        16.2999n  932.1178m  700.0000m 
 -659.00678m    0.        16.2882n  931.9763m  700.0000m 
 -658.90678m    0.        16.2765n  931.8349m  700.0000m 
 -658.80678m    0.        16.2648n  931.6935m  700.0000m 
 -658.70678m    0.        16.2531n  931.5521m  700.0000m 
 -658.60678m    0.        16.2414n  931.4107m  700.0000m 
 -658.50678m    0.        16.2298n  931.2692m  700.0000m 
 -658.40678m    0.        16.2181n  931.1278m  700.0000m 
 -658.30678m    0.        16.2064n  930.9864m  700.0000m 
 -658.20678m    0.        16.1947n  930.8450m  700.0000m 
 -658.10678m    0.        16.1831n  930.7036m  700.0000m 
 -658.00678m    0.        16.1714n  930.5621m  700.0000m 
 -657.90678m    0.        16.1597n  930.4207m  700.0000m 
 -657.80678m    0.        16.1480n  930.2793m  700.0000m 
 -657.70678m    0.        16.1364n  930.1379m  700.0000m 
 -657.60678m    0.        16.1247n  929.9964m  700.0000m 
 -657.50678m    0.        16.1130n  929.8550m  700.0000m 
 -657.40678m    0.        16.1014n  929.7136m  700.0000m 
 -657.30678m    0.        16.0897n  929.5722m  700.0000m 
 -657.20678m    0.        16.0781n  929.4308m  700.0000m 
 -657.10678m    0.        16.0664n  929.2893m  700.0000m 
 -657.00678m    0.        16.0547n  929.1479m  700.0000m 
 -656.90678m    0.        16.0431n  929.0065m  700.0000m 
 -656.80678m    0.        16.0314n  928.8651m  700.0000m 
 -656.70678m    0.        16.0198n  928.7237m  700.0000m 
 -656.60678m    0.        16.0081n  928.5822m  700.0000m 
 -656.50678m    0.        15.9965n  928.4408m  700.0000m 
 -656.40678m    0.        15.9848n  928.2994m  700.0000m 
 -656.30678m    0.        15.9732n  928.1580m  700.0000m 
 -656.20678m    0.        15.9615n  928.0165m  700.0000m 
 -656.10678m    0.        15.9499n  927.8751m  700.0000m 
 -656.00678m    0.        15.9382n  927.7337m  700.0000m 
 -655.90678m    0.        15.9266n  927.5923m  700.0000m 
 -655.80678m    0.        15.9149n  927.4509m  700.0000m 
 -655.70678m    0.        15.9033n  927.3094m  700.0000m 
 -655.60678m    0.        15.8917n  927.1680m  700.0000m 
 -655.50678m    0.        15.8800n  927.0266m  700.0000m 
 -655.40678m    0.        15.8684n  926.8852m  700.0000m 
 -655.30678m    0.        15.8568n  926.7438m  700.0000m 
 -655.20678m    0.        15.8451n  926.6023m  700.0000m 
 -655.10678m    0.        15.8335n  926.4609m  700.0000m 
 -655.00678m    0.        15.8219n  926.3195m  700.0000m 
 -654.90678m    0.        15.8103n  926.1781m  700.0000m 
 -654.80678m    0.        15.7987n  926.0366m  700.0000m 
 -654.70678m    0.        15.7871n  925.8952m  700.0000m 
 -654.60678m    0.        15.7755n  925.7538m  700.0000m 
 -654.50678m    0.        15.7639n  925.6124m  700.0000m 
 -654.40678m    0.        15.7523n  925.4710m  700.0000m 
 -654.30678m    0.        15.7407n  925.3295m  700.0000m 
 -654.20678m    0.        15.7291n  925.1881m  700.0000m 
 -654.10678m    0.        15.7175n  925.0467m  700.0000m 
 -654.00678m    0.        15.7059n  924.9053m  700.0000m 
 -653.90678m    0.        15.6943n  924.7639m  700.0000m 
 -653.80678m    0.        15.6827n  924.6224m  700.0000m 
 -653.70678m    0.        15.6711n  924.4810m  700.0000m 
 -653.60678m    0.        15.6595n  924.3396m  700.0000m 
 -653.50678m    0.        15.6479n  924.1982m  700.0000m 
 -653.40678m    0.        15.6363n  924.0567m  700.0000m 
 -653.30678m    0.        15.6247n  923.9153m  700.0000m 
 -653.20678m    0.        15.6131n  923.7739m  700.0000m 
 -653.10678m    0.        15.6015n  923.6325m  700.0000m 
 -653.00678m    0.        15.5900n  923.4911m  700.0000m 
 -652.90678m    0.        15.5784n  923.3496m  700.0000m 
 -652.80678m    0.        15.5668n  923.2082m  700.0000m 
 -652.70678m    0.        15.5552n  923.0668m  700.0000m 
 -652.60678m    0.        15.5436n  922.9254m  700.0000m 
 -652.50678m    0.        15.5321n  922.7840m  700.0000m 
 -652.40678m    0.        15.5205n  922.6425m  700.0000m 
 -652.30678m    0.        15.5089n  922.5011m  700.0000m 
 -652.20678m    0.        15.4973n  922.3597m  700.0000m 
 -652.10678m    0.        15.4858n  922.2183m  700.0000m 
 -652.00678m    0.        15.4742n  922.0768m  700.0000m 
 -651.90678m    0.        15.4626n  921.9354m  700.0000m 
 -651.80678m    0.        15.4511n  921.7940m  700.0000m 
 -651.70678m    0.        15.4395n  921.6526m  700.0000m 
 -651.60678m    0.        15.4279n  921.5112m  700.0000m 
 -651.50678m    0.        15.4164n  921.3697m  700.0000m 
 -651.40678m    0.        15.4048n  921.2283m  700.0000m 
 -651.30678m    0.        15.3933n  921.0869m  700.0000m 
 -651.20678m    0.        15.3817n  920.9455m  700.0000m 
 -651.10678m    0.        15.3702n  920.8041m  700.0000m 
 -651.00678m    0.        15.3586n  920.6626m  700.0000m 
 -650.90678m    0.        15.3470n  920.5212m  700.0000m 
 -650.80678m    0.        15.3355n  920.3798m  700.0000m 
 -650.70678m    0.        15.3239n  920.2384m  700.0000m 
 -650.60678m    0.        15.3124n  920.0969m  700.0000m 
 -650.50678m    0.        15.3009n  919.9555m  700.0000m 
 -650.40678m    0.        15.2893n  919.8141m  700.0000m 
 -650.30678m    0.        15.2778n  919.6727m  700.0000m 
 -650.20678m    0.        15.2662n  919.5313m  700.0000m 
 -650.10678m    0.        15.2547n  919.3898m  700.0000m 
 -650.00678m    0.        15.2432n  919.2484m  700.0000m 
 -649.90678m    0.        15.2316n  919.1070m  700.0000m 
 -649.80678m    0.        15.2201n  918.9656m  700.0000m 
 -649.70678m    0.        15.2086n  918.8242m  700.0000m 
 -649.60678m    0.        15.1970n  918.6827m  700.0000m 
 -649.50678m    0.        15.1855n  918.5413m  700.0000m 
 -649.40678m    0.        15.1740n  918.3999m  700.0000m 
 -649.30678m    0.        15.1624n  918.2585m  700.0000m 
 -649.20678m    0.        15.1509n  918.1170m  700.0000m 
 -649.10678m    0.        15.1394n  917.9756m  700.0000m 
 -649.00678m    0.        15.1279n  917.8342m  700.0000m 
 -648.90678m    0.        15.1164n  917.6928m  700.0000m 
 -648.80678m    0.        15.1048n  917.5514m  700.0000m 
 -648.70678m    0.        15.0933n  917.4099m  700.0000m 
 -648.60678m    0.        15.0818n  917.2685m  700.0000m 
 -648.50678m    0.        15.0703n  917.1271m  700.0000m 
 -648.40678m    0.        15.0588n  916.9857m  700.0000m 
 -648.30678m    0.        15.0473n  916.8443m  700.0000m 
 -648.20678m    0.        15.0358n  916.7028m  700.0000m 
 -648.10678m    0.        15.0243n  916.5614m  700.0000m 
 -648.00678m    0.        15.0128n  916.4200m  700.0000m 
 -647.90678m    0.        15.0012n  916.2786m  700.0000m 
 -647.80678m    0.        14.9897n  916.1372m  700.0000m 
 -647.70678m    0.        14.9782n  915.9957m  700.0000m 
 -647.60678m    0.        14.9667n  915.8543m  700.0000m 
 -647.50678m    0.        14.9553n  915.7129m  700.0000m 
 -647.40678m    0.        14.9438n  915.5715m  700.0000m 
 -647.30678m    0.        14.9323n  915.4300m  700.0000m 
 -647.20678m    0.        14.9208n  915.2886m  700.0000m 
 -647.10678m    0.        14.9093n  915.1472m  700.0000m 
 -647.00678m    0.        14.8978n  915.0058m  700.0000m 
 -646.90678m    0.        14.8863n  914.8644m  700.0000m 
 -646.80678m    0.        14.8748n  914.7229m  700.0000m 
 -646.70678m    0.        14.8633n  914.5815m  700.0000m 
 -646.60678m    0.        14.8519n  914.4401m  700.0000m 
 -646.50678m    0.        14.8404n  914.2987m  700.0000m 
 -646.40678m    0.        14.8289n  914.1573m  700.0000m 
 -646.30678m    0.        14.8174n  914.0158m  700.0000m 
 -646.20678m    0.        14.8060n  913.8744m  700.0000m 
 -646.10678m    0.        14.7945n  913.7330m  700.0000m 
 -646.00678m    0.        14.7830n  913.5916m  700.0000m 
 -645.90678m    0.        14.7715n  913.4501m  700.0000m 
 -645.80678m    0.        14.7601n  913.3087m  700.0000m 
 -645.70678m    0.        14.7486n  913.1673m  700.0000m 
 -645.60678m    0.        14.7371n  913.0259m  700.0000m 
 -645.50678m    0.        14.7257n  912.8845m  700.0000m 
 -645.40678m    0.        14.7142n  912.7430m  700.0000m 
 -645.30678m    0.        14.7028n  912.6016m  700.0000m 
 -645.20678m    0.        14.6913n  912.4602m  700.0000m 
 -645.10678m    0.        14.6798n  912.3188m  700.0000m 
 -645.00678m    0.        14.6684n  912.1774m  700.0000m 
 -644.90678m    0.        14.6569n  912.0359m  700.0000m 
 -644.80678m    0.        14.6455n  911.8945m  700.0000m 
 -644.70678m    0.        14.6340n  911.7531m  700.0000m 
 -644.60678m    0.        14.6226n  911.6117m  700.0000m 
 -644.50678m    0.        14.6112n  911.4702m  700.0000m 
 -644.40678m    0.        14.5997n  911.3288m  700.0000m 
 -644.30678m    0.        14.5883n  911.1874m  700.0000m 
 -644.20678m    0.        14.5768n  911.0460m  700.0000m 
 -644.10678m    0.        14.5654n  910.9046m  700.0000m 
 -644.00678m    0.        14.5540n  910.7631m  700.0000m 
 -643.90678m    0.        14.5425n  910.6217m  700.0000m 
 -643.80678m    0.        14.5311n  910.4803m  700.0000m 
 -643.70678m    0.        14.5197n  910.3389m  700.0000m 
 -643.60678m    0.        14.5082n  910.1975m  700.0000m 
 -643.50678m    0.        14.4968n  910.0560m  700.0000m 
 -643.40678m    0.        14.4854n  909.9146m  700.0000m 
 -643.30678m    0.        14.4740n  909.7732m  700.0000m 
 -643.20678m    0.        14.4625n  909.6318m  700.0000m 
 -643.10678m    0.        14.4511n  909.4903m  700.0000m 
 -643.00678m    0.        14.4397n  909.3489m  700.0000m 
 -642.90678m    0.        14.4283n  909.2075m  700.0000m 
 -642.80678m    0.        14.4169n  909.0661m  700.0000m 
 -642.70678m    0.        14.4055n  908.9247m  700.0000m 
 -642.60678m    0.        14.3941n  908.7832m  700.0000m 
 -642.50678m    0.        14.3826n  908.6418m  700.0000m 
 -642.40678m    0.        14.3712n  908.5004m  700.0000m 
 -642.30678m    0.        14.3598n  908.3590m  700.0000m 
 -642.20678m    0.        14.3484n  908.2176m  700.0000m 
 -642.10678m    0.        14.3370n  908.0761m  700.0000m 
 -642.00678m    0.        14.3256n  907.9347m  700.0000m 
 -641.90678m    0.        14.3142n  907.7933m  700.0000m 
 -641.80678m    0.        14.3028n  907.6519m  700.0000m 
 -641.70678m    0.        14.2914n  907.5104m  700.0000m 
 -641.60678m    0.        14.2801n  907.3690m  700.0000m 
 -641.50678m    0.        14.2687n  907.2276m  700.0000m 
 -641.40678m    0.        14.2573n  907.0862m  700.0000m 
 -641.30678m    0.        14.2459n  906.9448m  700.0000m 
 -641.20678m    0.        14.2345n  906.8033m  700.0000m 
 -641.10678m    0.        14.2231n  906.6619m  700.0000m 
 -641.00678m    0.        14.2118n  906.5205m  700.0000m 
 -640.90678m    0.        14.2004n  906.3791m  700.0000m 
 -640.80678m    0.        14.1890n  906.2377m  700.0000m 
 -640.70678m    0.        14.1776n  906.0962m  700.0000m 
 -640.60678m    0.        14.1663n  905.9548m  700.0000m 
 -640.50678m    0.        14.1549n  905.8134m  700.0000m 
 -640.40678m    0.        14.1435n  905.6720m  700.0000m 
 -640.30678m    0.        14.1322n  905.5305m  700.0000m 
 -640.20678m    0.        14.1208n  905.3891m  700.0000m 
 -640.10678m    0.        14.1094n  905.2477m  700.0000m 
 -640.00678m    0.        14.0981n  905.1063m  700.0000m 
 -639.90678m    0.        14.0867n  904.9649m  700.0000m 
 -639.80678m    0.        14.0754n  904.8234m  700.0000m 
 -639.70678m    0.        14.0640n  904.6820m  700.0000m 
 -639.60678m    0.        14.0527n  904.5406m  700.0000m 
 -639.50678m    0.        14.0413n  904.3992m  700.0000m 
 -639.40678m    0.        14.0300n  904.2578m  700.0000m 
 -639.30678m    0.        14.0186n  904.1163m  700.0000m 
 -639.20678m    0.        14.0073n  903.9749m  700.0000m 
 -639.10678m    0.        13.9959n  903.8335m  700.0000m 
 -639.00678m    0.        13.9846n  903.6921m  700.0000m 
 -638.90678m    0.        13.9733n  903.5506m  700.0000m 
 -638.80678m    0.        13.9619n  903.4092m  700.0000m 
 -638.70678m    0.        13.9506n  903.2678m  700.0000m 
 -638.60678m    0.        13.9393n  903.1264m  700.0000m 
 -638.50678m    0.        13.9280n  902.9850m  700.0000m 
 -638.40678m    0.        13.9166n  902.8435m  700.0000m 
 -638.30678m    0.        13.9053n  902.7021m  700.0000m 
 -638.20678m    0.        13.8940n  902.5607m  700.0000m 
 -638.10678m    0.        13.8827n  902.4193m  700.0000m 
 -638.00678m    0.        13.8714n  902.2779m  700.0000m 
 -637.90678m    0.        13.8600n  902.1364m  700.0000m 
 -637.80678m    0.        13.8487n  901.9950m  700.0000m 
 -637.70678m    0.        13.8374n  901.8536m  700.0000m 
 -637.60678m    0.        13.8261n  901.7122m  700.0000m 
 -637.50678m    0.        13.8148n  901.5707m  700.0000m 
 -637.40678m    0.        13.8035n  901.4293m  700.0000m 
 -637.30678m    0.        13.7922n  901.2879m  700.0000m 
 -637.20678m    0.        13.7809n  901.1465m  700.0000m 
 -637.10678m    0.        13.7696n  901.0051m  700.0000m 
 -637.00678m    0.        13.7583n  900.8636m  700.0000m 
 -636.90678m    0.        13.7470n  900.7222m  700.0000m 
 -636.80678m    0.        13.7357n  900.5808m  700.0000m 
 -636.70678m    0.        13.7244n  900.4394m  700.0000m 
 -636.60678m    0.        13.7132n  900.2980m  700.0000m 
 -636.50678m    0.        13.7019n  900.1565m  700.0000m 
 -636.40678m    0.        13.6906n  900.0151m  700.0000m 
 -636.30678m    0.        13.6793n  899.8737m  700.0000m 
 -636.20678m    0.        13.6680n  899.7323m  700.0000m 
 -636.10678m    0.        13.6568n  899.5909m  700.0000m 
 -636.00678m    0.        13.6455n  899.4494m  700.0000m 
 -635.90678m    0.        13.6342n  899.3080m  700.0000m 
 -635.80678m    0.        13.6230n  899.1666m  700.0000m 
 -635.70678m    0.        13.6117n  899.0252m  700.0000m 
 -635.60678m    0.        13.6004n  898.8837m  700.0000m 
 -635.50678m    0.        13.5892n  898.7423m  700.0000m 
 -635.40678m    0.        13.5779n  898.6009m  700.0000m 
 -635.30678m    0.        13.5667n  898.4595m  700.0000m 
 -635.20678m    0.        13.5554n  898.3181m  700.0000m 
 -635.10678m    0.        13.5442n  898.1766m  700.0000m 
 -635.00678m    0.        13.5329n  898.0352m  700.0000m 
 -634.90678m    0.        13.5217n  897.8938m  700.0000m 
 -634.80678m    0.        13.5104n  897.7524m  700.0000m 
 -634.70678m    0.        13.4992n  897.6110m  700.0000m 
 -634.60678m    0.        13.4880n  897.4695m  700.0000m 
 -634.50678m    0.        13.4767n  897.3281m  700.0000m 
 -634.40678m    0.        13.4655n  897.1867m  700.0000m 
 -634.30678m    0.        13.4543n  897.0453m  700.0000m 
 -634.20678m    0.        13.4430n  896.9038m  700.0000m 
 -634.10678m    0.        13.4318n  896.7624m  700.0000m 
 -634.00678m    0.        13.4206n  896.6210m  700.0000m 
 -633.90678m    0.        13.4094n  896.4796m  700.0000m 
 -633.80678m    0.        13.3982n  896.3382m  700.0000m 
 -633.70678m    0.        13.3869n  896.1967m  700.0000m 
 -633.60678m    0.        13.3757n  896.0553m  700.0000m 
 -633.50678m    0.        13.3645n  895.9139m  700.0000m 
 -633.40678m    0.        13.3533n  895.7725m  700.0000m 
 -633.30678m    0.        13.3421n  895.6311m  700.0000m 
 -633.20678m    0.        13.3309n  895.4896m  700.0000m 
 -633.10678m    0.        13.3197n  895.3482m  700.0000m 
 -633.00678m    0.        13.3085n  895.2068m  700.0000m 
 -632.90678m    0.        13.2973n  895.0654m  700.0000m 
 -632.80678m    0.        13.2861n  894.9239m  700.0000m 
 -632.70678m    0.        13.2749n  894.7825m  700.0000m 
 -632.60678m    0.        13.2638n  894.6411m  700.0000m 
 -632.50678m    0.        13.2526n  894.4997m  700.0000m 
 -632.40678m    0.        13.2414n  894.3583m  700.0000m 
 -632.30678m    0.        13.2302n  894.2168m  700.0000m 
 -632.20678m    0.        13.2190n  894.0754m  700.0000m 
 -632.10678m    0.        13.2079n  893.9340m  700.0000m 
 -632.00678m    0.        13.1967n  893.7926m  700.0000m 
 -631.90678m    0.        13.1855n  893.6512m  700.0000m 
 -631.80678m    0.        13.1744n  893.5097m  700.0000m 
 -631.70678m    0.        13.1632n  893.3683m  700.0000m 
 -631.60678m    0.        13.1521n  893.2269m  700.0000m 
 -631.50678m    0.        13.1409n  893.0855m  700.0000m 
 -631.40678m    0.        13.1298n  892.9440m  700.0000m 
 -631.30678m    0.        13.1186n  892.8026m  700.0000m 
 -631.20678m    0.        13.1075n  892.6612m  700.0000m 
 -631.10678m    0.        13.0963n  892.5198m  700.0000m 
 -631.00678m    0.        13.0852n  892.3784m  700.0000m 
 -630.90678m    0.        13.0740n  892.2369m  700.0000m 
 -630.80678m    0.        13.0629n  892.0955m  700.0000m 
 -630.70678m    0.        13.0518n  891.9541m  700.0000m 
 -630.60678m    0.        13.0406n  891.8127m  700.0000m 
 -630.50678m    0.        13.0295n  891.6713m  700.0000m 
 -630.40678m    0.        13.0184n  891.5298m  700.0000m 
 -630.30678m    0.        13.0073n  891.3884m  700.0000m 
 -630.20678m    0.        12.9961n  891.2470m  700.0000m 
 -630.10678m    0.        12.9850n  891.1056m  700.0000m 
 -630.00678m    0.        12.9739n  890.9641m  700.0000m 
 -629.90678m    0.        12.9628n  890.8227m  700.0000m 
 -629.80678m    0.        12.9517n  890.6813m  700.0000m 
 -629.70678m    0.        12.9406n  890.5399m  700.0000m 
 -629.60678m    0.        12.9295n  890.3985m  700.0000m 
 -629.50678m    0.        12.9184n  890.2570m  700.0000m 
 -629.40678m    0.        12.9073n  890.1156m  700.0000m 
 -629.30678m    0.        12.8962n  889.9742m  700.0000m 
 -629.20678m    0.        12.8851n  889.8328m  700.0000m 
 -629.10678m    0.        12.8741n  889.6914m  700.0000m 
 -629.00678m    0.        12.8630n  889.5499m  700.0000m 
 -628.90678m    0.        12.8519n  889.4085m  700.0000m 
 -628.80678m    0.        12.8408n  889.2671m  700.0000m 
 -628.70678m    0.        12.8297n  889.1257m  700.0000m 
 -628.60678m    0.        12.8187n  888.9842m  700.0000m 
 -628.50678m    0.        12.8076n  888.8428m  700.0000m 
 -628.40678m    0.        12.7966n  888.7014m  700.0000m 
 -628.30678m    0.        12.7855n  888.5600m  700.0000m 
 -628.20678m    0.        12.7744n  888.4186m  700.0000m 
 -628.10678m    0.        12.7634n  888.2771m  700.0000m 
 -628.00678m    0.        12.7523n  888.1357m  700.0000m 
 -627.90678m    0.        12.7413n  887.9943m  700.0000m 
 -627.80678m    0.        12.7302n  887.8529m  700.0000m 
 -627.70678m    0.        12.7192n  887.7115m  700.0000m 
 -627.60678m    0.        12.7082n  887.5700m  700.0000m 
 -627.50678m    0.        12.6971n  887.4286m  700.0000m 
 -627.40678m    0.        12.6861n  887.2872m  700.0000m 
 -627.30678m    0.        12.6751n  887.1458m  700.0000m 
 -627.20678m    0.        12.6641n  887.0043m  700.0000m 
 -627.10678m    0.        12.6530n  886.8629m  700.0000m 
 -627.00678m    0.        12.6420n  886.7215m  700.0000m 
 -626.90678m    0.        12.6310n  886.5801m  700.0000m 
 -626.80678m    0.        12.6200n  886.4387m  700.0000m 
 -626.70678m    0.        12.6090n  886.2972m  700.0000m 
 -626.60678m    0.        12.5980n  886.1558m  700.0000m 
 -626.50678m    0.        12.5870n  886.0144m  700.0000m 
 -626.40678m    0.        12.5760n  885.8730m  700.0000m 
 -626.30678m    0.        12.5650n  885.7316m  700.0000m 
 -626.20678m    0.        12.5540n  885.5901m  700.0000m 
 -626.10678m    0.        12.5430n  885.4487m  700.0000m 
 -626.00678m    0.        12.5321n  885.3073m  700.0000m 
 -625.90678m    0.        12.5211n  885.1659m  700.0000m 
 -625.80678m    0.        12.5101n  885.0244m  700.0000m 
 -625.70678m    0.        12.4991n  884.8830m  700.0000m 
 -625.60678m    0.        12.4882n  884.7416m  700.0000m 
 -625.50678m    0.        12.4772n  884.6002m  700.0000m 
 -625.40678m    0.        12.4662n  884.4588m  700.0000m 
 -625.30678m    0.        12.4553n  884.3173m  700.0000m 
 -625.20678m    0.        12.4443n  884.1759m  700.0000m 
 -625.10678m    0.        12.4334n  884.0345m  700.0000m 
 -625.00678m    0.        12.4224n  883.8931m  700.0000m 
 -624.90678m    0.        12.4115n  883.7517m  700.0000m 
 -624.80678m    0.        12.4006n  883.6102m  700.0000m 
 -624.70678m    0.        12.3896n  883.4688m  700.0000m 
 -624.60678m    0.        12.3787n  883.3274m  700.0000m 
 -624.50678m    0.        12.3678n  883.1860m  700.0000m 
 -624.40678m    0.        12.3568n  883.0446m  700.0000m 
 -624.30678m    0.        12.3459n  882.9031m  700.0000m 
 -624.20678m    0.        12.3350n  882.7617m  700.0000m 
 -624.10678m    0.        12.3241n  882.6203m  700.0000m 
 -624.00678m    0.        12.3132n  882.4789m  700.0000m 
 -623.90678m    0.        12.3023n  882.3374m  700.0000m 
 -623.80678m    0.        12.2914n  882.1960m  700.0000m 
 -623.70678m    0.        12.2805n  882.0546m  700.0000m 
 -623.60678m    0.        12.2696n  881.9132m  700.0000m 
 -623.50678m    0.        12.2587n  881.7718m  700.0000m 
 -623.40678m    0.        12.2478n  881.6303m  700.0000m 
 -623.30678m    0.        12.2370n  881.4889m  700.0000m 
 -623.20678m    0.        12.2261n  881.3475m  700.0000m 
 -623.10678m    0.        12.2152n  881.2061m  700.0000m 
 -623.00678m    0.        12.2043n  881.0647m  700.0000m 
 -622.90678m    0.        12.1935n  880.9232m  700.0000m 
 -622.80678m    0.        12.1826n  880.7818m  700.0000m 
 -622.70678m    0.        12.1718n  880.6404m  700.0000m 
 -622.60678m    0.        12.1609n  880.4990m  700.0000m 
 -622.50678m    0.        12.1501n  880.3575m  700.0000m 
 -622.40678m    0.        12.1392n  880.2161m  700.0000m 
 -622.30678m    0.        12.1284n  880.0747m  700.0000m 
 -622.20678m    0.        12.1175n  879.9333m  700.0000m 
 -622.10678m    0.        12.1067n  879.7919m  700.0000m 
 -622.00678m    0.        12.0959n  879.6504m  700.0000m 
 -621.90678m    0.        12.0851n  879.5090m  700.0000m 
 -621.80678m    0.        12.0742n  879.3676m  700.0000m 
 -621.70678m    0.        12.0634n  879.2262m  700.0000m 
 -621.60678m    0.        12.0526n  879.0848m  700.0000m 
 -621.50678m    0.        12.0418n  878.9433m  700.0000m 
 -621.40678m    0.        12.0310n  878.8019m  700.0000m 
 -621.30678m    0.        12.0202n  878.6605m  700.0000m 
 -621.20678m    0.        12.0094n  878.5191m  700.0000m 
 -621.10678m    0.        11.9986n  878.3776m  700.0000m 
 -621.00678m    0.        11.9879n  878.2362m  700.0000m 
 -620.90678m    0.        11.9771n  878.0948m  700.0000m 
 -620.80678m    0.        11.9663n  877.9534m  700.0000m 
 -620.70678m    0.        11.9555n  877.8120m  700.0000m 
 -620.60678m    0.        11.9448n  877.6705m  700.0000m 
 -620.50678m    0.        11.9340n  877.5291m  700.0000m 
 -620.40678m    0.        11.9233n  877.3877m  700.0000m 
 -620.30678m    0.        11.9125n  877.2463m  700.0000m 
 -620.20678m    0.        11.9018n  877.1049m  700.0000m 
 -620.10678m    0.        11.8910n  876.9634m  700.0000m 
 -620.00678m    0.        11.8803n  876.8220m  700.0000m 
 -619.90678m    0.        11.8695n  876.6806m  700.0000m 
 -619.80678m    0.        11.8588n  876.5392m  700.0000m 
 -619.70678m    0.        11.8481n  876.3977m  700.0000m 
 -619.60678m    0.        11.8374n  876.2563m  700.0000m 
 -619.50678m    0.        11.8267n  876.1149m  700.0000m 
 -619.40678m    0.        11.8159n  875.9735m  700.0000m 
 -619.30678m    0.        11.8052n  875.8321m  700.0000m 
 -619.20678m    0.        11.7945n  875.6906m  700.0000m 
 -619.10678m    0.        11.7838n  875.5492m  700.0000m 
 -619.00678m    0.        11.7732n  875.4078m  700.0000m 
 -618.90678m    0.        11.7625n  875.2664m  700.0000m 
 -618.80678m    0.        11.7518n  875.1250m  700.0000m 
 -618.70678m    0.        11.7411n  874.9835m  700.0000m 
 -618.60678m    0.        11.7304n  874.8421m  700.0000m 
 -618.50678m    0.        11.7198n  874.7007m  700.0000m 
 -618.40678m    0.        11.7091n  874.5593m  700.0000m 
 -618.30678m    0.        11.6985n  874.4178m  700.0000m 
 -618.20678m    0.        11.6878n  874.2764m  700.0000m 
 -618.10678m    0.        11.6772n  874.1350m  700.0000m 
 -618.00678m    0.        11.6665n  873.9936m  700.0000m 
 -617.90678m    0.        11.6559n  873.8522m  700.0000m 
 -617.80678m    0.        11.6453n  873.7107m  700.0000m 
 -617.70678m    0.        11.6346n  873.5693m  700.0000m 
 -617.60678m    0.        11.6240n  873.4279m  700.0000m 
 -617.50678m    0.        11.6134n  873.2865m  700.0000m 
 -617.40678m    0.        11.6028n  873.1451m  700.0000m 
 -617.30678m    0.        11.5922n  873.0036m  700.0000m 
 -617.20678m    0.        11.5816n  872.8622m  700.0000m 
 -617.10678m    0.        11.5710n  872.7208m  700.0000m 
 -617.00678m    0.        11.5604n  872.5794m  700.0000m 
 -616.90678m    0.        11.5498n  872.4379m  700.0000m 
 -616.80678m    0.        11.5392n  872.2965m  700.0000m 
 -616.70678m    0.        11.5287n  872.1551m  700.0000m 
 -616.60678m    0.        11.5181n  872.0137m  700.0000m 
 -616.50678m    0.        11.5075n  871.8723m  700.0000m 
 -616.40678m    0.        11.4970n  871.7308m  700.0000m 
 -616.30678m    0.        11.4864n  871.5894m  700.0000m 
 -616.20678m    0.        11.4759n  871.4480m  700.0000m 
 -616.10678m    0.        11.4653n  871.3066m  700.0000m 
 -616.00678m    0.        11.4548n  871.1652m  700.0000m 
 -615.90678m    0.        11.4443n  871.0237m  700.0000m 
 -615.80678m    0.        11.4337n  870.8823m  700.0000m 
 -615.70678m    0.        11.4232n  870.7409m  700.0000m 
 -615.60678m    0.        11.4127n  870.5995m  700.0000m 
 -615.50678m    0.        11.4022n  870.4580m  700.0000m 
 -615.40678m    0.        11.3917n  870.3166m  700.0000m 
 -615.30678m    0.        11.3812n  870.1752m  700.0000m 
 -615.20678m    0.        11.3707n  870.0338m  700.0000m 
 -615.10678m    0.        11.3602n  869.8924m  700.0000m 
 -615.00678m    0.        11.3498n  869.7509m  700.0000m 
 -614.90678m    0.        11.3393n  869.6095m  700.0000m 
 -614.80678m    0.        11.3288n  869.4681m  700.0000m 
 -614.70678m    0.        11.3184n  869.3267m  700.0000m 
 -614.60678m    0.        11.3079n  869.1853m  700.0000m 
 -614.50678m    0.        11.2975n  869.0438m  700.0000m 
 -614.40678m    0.        11.2870n  868.9024m  700.0000m 
 -614.30678m    0.        11.2766n  868.7610m  700.0000m 
 -614.20678m    0.        11.2661n  868.6196m  700.0000m 
 -614.10678m    0.        11.2557n  868.4781m  700.0000m 
 -614.00678m    0.        11.2453n  868.3367m  700.0000m 
 -613.90678m    0.        11.2349n  868.1953m  700.0000m 
 -613.80678m    0.        11.2245n  868.0539m  700.0000m 
 -613.70678m    0.        11.2141n  867.9125m  700.0000m 
 -613.60678m    0.        11.2037n  867.7710m  700.0000m 
 -613.50678m    0.        11.1933n  867.6296m  700.0000m 
 -613.40678m    0.        11.1829n  867.4882m  700.0000m 
 -613.30678m    0.        11.1725n  867.3468m  700.0000m 
 -613.20678m    0.        11.1622n  867.2054m  700.0000m 
 -613.10678m    0.        11.1518n  867.0639m  700.0000m 
 -613.00678m    0.        11.1415n  866.9225m  700.0000m 
 -612.90678m    0.        11.1311n  866.7811m  700.0000m 
 -612.80678m    0.        11.1208n  866.6397m  700.0000m 
 -612.70678m    0.        11.1104n  866.4983m  700.0000m 
 -612.60678m    0.        11.1001n  866.3568m  700.0000m 
 -612.50678m    0.        11.0898n  866.2154m  700.0000m 
 -612.40678m    0.        11.0795n  866.0740m  700.0000m 
 -612.30678m    0.        11.0691n  865.9326m  700.0000m 
 -612.20678m    0.        11.0588n  865.7911m  700.0000m 
 -612.10678m    0.        11.0485n  865.6497m  700.0000m 
 -612.00678m    0.        11.0382n  865.5083m  700.0000m 
 -611.90678m    0.        11.0280n  865.3669m  700.0000m 
 -611.80678m    0.        11.0177n  865.2255m  700.0000m 
 -611.70678m    0.        11.0074n  865.0840m  700.0000m 
 -611.60678m    0.        10.9972n  864.9426m  700.0000m 
 -611.50678m    0.        10.9869n  864.8012m  700.0000m 
 -611.40678m    0.        10.9766n  864.6598m  700.0000m 
 -611.30678m    0.        10.9664n  864.5184m  700.0000m 
 -611.20678m    0.        10.9562n  864.3769m  700.0000m 
 -611.10678m    0.        10.9459n  864.2355m  700.0000m 
 -611.00678m    0.        10.9357n  864.0941m  700.0000m 
 -610.90678m    0.        10.9255n  863.9527m  700.0000m 
 -610.80678m    0.        10.9153n  863.8112m  700.0000m 
 -610.70678m    0.        10.9051n  863.6698m  700.0000m 
 -610.60678m    0.        10.8949n  863.5284m  700.0000m 
 -610.50678m    0.        10.8847n  863.3870m  700.0000m 
 -610.40678m    0.        10.8745n  863.2456m  700.0000m 
 -610.30678m    0.        10.8643n  863.1041m  700.0000m 
 -610.20678m    0.        10.8542n  862.9627m  700.0000m 
 -610.10678m    0.        10.8440n  862.8213m  700.0000m 
 -610.00678m    0.        10.8339n  862.6799m  700.0000m 
 -609.90678m    0.        10.8237n  862.5385m  700.0000m 
 -609.80678m    0.        10.8136n  862.3970m  700.0000m 
 -609.70678m    0.        10.8035n  862.2556m  700.0000m 
 -609.60678m    0.        10.7933n  862.1142m  700.0000m 
 -609.50678m    0.        10.7832n  861.9728m  700.0000m 
 -609.40678m    0.        10.7731n  861.8313m  700.0000m 
 -609.30678m    0.        10.7630n  861.6899m  700.0000m 
 -609.20678m    0.        10.7529n  861.5485m  700.0000m 
 -609.10678m    0.        10.7428n  861.4071m  700.0000m 
 -609.00678m    0.        10.7327n  861.2657m  700.0000m 
 -608.90678m    0.        10.7227n  861.1242m  700.0000m 
 -608.80678m    0.        10.7126n  860.9828m  700.0000m 
 -608.70678m    0.        10.7026n  860.8414m  700.0000m 
 -608.60678m    0.        10.6925n  860.7000m  700.0000m 
 -608.50678m    0.        10.6825n  860.5586m  700.0000m 
 -608.40678m    0.        10.6724n  860.4171m  700.0000m 
 -608.30678m    0.        10.6624n  860.2757m  700.0000m 
 -608.20678m    0.        10.6524n  860.1343m  700.0000m 
 -608.10678m    0.        10.6424n  859.9929m  700.0000m 
 -608.00678m    0.        10.6324n  859.8514m  700.0000m 
 -607.90678m    0.        10.6224n  859.7100m  700.0000m 
 -607.80678m    0.        10.6124n  859.5686m  700.0000m 
 -607.70678m    0.        10.6024n  859.4272m  700.0000m 
 -607.60678m    0.        10.5925n  859.2858m  700.0000m 
 -607.50678m    0.        10.5825n  859.1443m  700.0000m 
 -607.40678m    0.        10.5726n  859.0029m  700.0000m 
 -607.30678m    0.        10.5626n  858.8615m  700.0000m 
 -607.20678m    0.        10.5527n  858.7201m  700.0000m 
 -607.10678m    0.        10.5428n  858.5787m  700.0000m 
 -607.00678m    0.        10.5328n  858.4372m  700.0000m 
 -606.90678m    0.        10.5229n  858.2958m  700.0000m 
 -606.80678m    0.        10.5130n  858.1544m  700.0000m 
 -606.70678m    0.        10.5031n  858.0130m  700.0000m 
 -606.60678m    0.        10.4933n  857.8715m  700.0000m 
 -606.50678m    0.        10.4834n  857.7301m  700.0000m 
 -606.40678m    0.        10.4735n  857.5887m  700.0000m 
 -606.30678m    0.        10.4637n  857.4473m  700.0000m 
 -606.20678m    0.        10.4538n  857.3059m  700.0000m 
 -606.10678m    0.        10.4440n  857.1644m  700.0000m 
 -606.00678m    0.        10.4341n  857.0230m  700.0000m 
 -605.90678m    0.        10.4243n  856.8816m  700.0000m 
 -605.80678m    0.        10.4145n  856.7402m  700.0000m 
 -605.70678m    0.        10.4047n  856.5988m  700.0000m 
 -605.60678m    0.        10.3949n  856.4573m  700.0000m 
 -605.50678m    0.        10.3851n  856.3159m  700.0000m 
 -605.40678m    0.        10.3753n  856.1745m  700.0000m 
 -605.30678m    0.        10.3656n  856.0331m  700.0000m 
 -605.20678m    0.        10.3558n  855.8916m  700.0000m 
 -605.10678m    0.        10.3460n  855.7502m  700.0000m 
 -605.00678m    0.        10.3363n  855.6088m  700.0000m 
 -604.90678m    0.        10.3266n  855.4674m  700.0000m 
 -604.80678m    0.        10.3168n  855.3260m  700.0000m 
 -604.70678m    0.        10.3071n  855.1845m  700.0000m 
 -604.60678m    0.        10.2974n  855.0431m  700.0000m 
 -604.50678m    0.        10.2877n  854.9017m  700.0000m 
 -604.40678m    0.        10.2780n  854.7603m  700.0000m 
 -604.30678m    0.        10.2683n  854.6189m  700.0000m 
 -604.20678m    0.        10.2587n  854.4774m  700.0000m 
 -604.10678m    0.        10.2490n  854.3360m  700.0000m 
 -604.00678m    0.        10.2394n  854.1946m  700.0000m 
 -603.90678m    0.        10.2297n  854.0532m  700.0000m 
 -603.80678m    0.        10.2201n  853.9117m  700.0000m 
 -603.70678m    0.        10.2105n  853.7703m  700.0000m 
 -603.60678m    0.        10.2009n  853.6289m  700.0000m 
 -603.50678m    0.        10.1913n  853.4875m  700.0000m 
 -603.40678m    0.        10.1817n  853.3461m  700.0000m 
 -603.30678m    0.        10.1721n  853.2046m  700.0000m 
 -603.20678m    0.        10.1625n  853.0632m  700.0000m 
 -603.10678m    0.        10.1529n  852.9218m  700.0000m 
 -603.00678m    0.        10.1434n  852.7804m  700.0000m 
 -602.90678m    0.        10.1339n  852.6390m  700.0000m 
 -602.80678m    0.        10.1243n  852.4975m  700.0000m 
 -602.70678m    0.        10.1148n  852.3561m  700.0000m 
 -602.60678m    0.        10.1053n  852.2147m  700.0000m 
 -602.50678m    0.        10.0958n  852.0733m  700.0000m 
 -602.40678m    0.        10.0863n  851.9319m  700.0000m 
 -602.30678m    0.        10.0768n  851.7904m  700.0000m 
 -602.20678m    0.        10.0673n  851.6490m  700.0000m 
 -602.10678m    0.        10.0579n  851.5076m  700.0000m 
 -602.00678m    0.        10.0484n  851.3662m  700.0000m 
 -601.90678m    0.        10.0390n  851.2247m  700.0000m 
 -601.80678m    0.        10.0295n  851.0833m  700.0000m 
 -601.70678m    0.        10.0201n  850.9419m  700.0000m 
 -601.60678m    0.        10.0107n  850.8005m  700.0000m 
 -601.50678m    0.        10.0013n  850.6591m  700.0000m 
 -601.40678m    0.         9.9919n  850.5176m  700.0000m 
 -601.30678m    0.         9.9826n  850.3762m  700.0000m 
 -601.20678m    0.         9.9732n  850.2348m  700.0000m 
 -601.10678m    0.         9.9638n  850.0934m  700.0000m 
 -601.00678m    0.         9.9545n  849.9520m  700.0000m 
 -600.90678m    0.         9.9452n  849.8105m  700.0000m 
 -600.80678m    0.         9.9358n  849.6691m  700.0000m 
 -600.70678m    0.         9.9265n  849.5277m  700.0000m 
 -600.60678m    0.         9.9172n  849.3863m  700.0000m 
 -600.50678m    0.         9.9079n  849.2448m  700.0000m 
 -600.40678m    0.         9.8986n  849.1034m  700.0000m 
 -600.30678m    0.         9.8894n  848.9620m  700.0000m 
 -600.20678m    0.         9.8801n  848.8206m  700.0000m 
 -600.10678m    0.         9.8709n  848.6792m  700.0000m 
 -600.00678m    0.         9.8616n  848.5377m  700.0000m 
 -599.90678m    0.         9.8524n  848.3963m  700.0000m 
 -599.80678m    0.         9.8432n  848.2549m  700.0000m 
 -599.70678m    0.         9.8340n  848.1135m  700.0000m 
 -599.60678m    0.         9.8248n  847.9721m  700.0000m 
 -599.50678m    0.         9.8156n  847.8306m  700.0000m 
 -599.40678m    0.         9.8065n  847.6892m  700.0000m 
 -599.30678m    0.         9.7973n  847.5478m  700.0000m 
 -599.20678m    0.         9.7882n  847.4064m  700.0000m 
 -599.10678m    0.         9.7791n  847.2649m  700.0000m 
 -599.00678m    0.         9.7699n  847.1235m  700.0000m 
 -598.90678m    0.         9.7608n  846.9821m  700.0000m 
 -598.80678m    0.         9.7517n  846.8407m  700.0000m 
 -598.70678m    0.         9.7427n  846.6993m  700.0000m 
 -598.60678m    0.         9.7336n  846.5578m  700.0000m 
 -598.50678m    0.         9.7245n  846.4164m  700.0000m 
 -598.40678m    0.         9.7155n  846.2750m  700.0000m 
 -598.30678m    0.         9.7065n  846.1336m  700.0000m 
 -598.20678m    0.         9.6974n  845.9922m  700.0000m 
 -598.10678m    0.         9.6884n  845.8507m  700.0000m 
 -598.00678m    0.         9.6794n  845.7093m  700.0000m 
 -597.90678m    0.         9.6704n  845.5679m  700.0000m 
 -597.80678m    0.         9.6615n  845.4265m  700.0000m 
 -597.70678m    0.         9.6525n  845.2850m  700.0000m 
 -597.60678m    0.         9.6436n  845.1436m  700.0000m 
 -597.50678m    0.         9.6346n  845.0022m  700.0000m 
 -597.40678m    0.         9.6257n  844.8608m  700.0000m 
 -597.30678m    0.         9.6168n  844.7194m  700.0000m 
 -597.20678m    0.         9.6079n  844.5779m  700.0000m 
 -597.10678m    0.         9.5990n  844.4365m  700.0000m 
 -597.00678m    0.         9.5901n  844.2951m  700.0000m 
 -596.90678m    0.         9.5813n  844.1537m  700.0000m 
 -596.80678m    0.         9.5724n  844.0123m  700.0000m 
 -596.70678m    0.         9.5636n  843.8708m  700.0000m 
 -596.60678m    0.         9.5548n  843.7294m  700.0000m 
 -596.50678m    0.         9.5460n  843.5880m  700.0000m 
 -596.40678m    0.         9.5372n  843.4466m  700.0000m 
 -596.30678m    0.         9.5284n  843.3051m  700.0000m 
 -596.20678m    0.         9.5196n  843.1637m  700.0000m 
 -596.10678m    0.         9.5109n  843.0223m  700.0000m 
 -596.00678m    0.         9.5022n  842.8809m  700.0000m 
 -595.90678m    0.         9.4934n  842.7395m  700.0000m 
 -595.80678m    0.         9.4847n  842.5980m  700.0000m 
 -595.70678m    0.         9.4760n  842.4566m  700.0000m 
 -595.60678m    0.         9.4673n  842.3152m  700.0000m 
 -595.50678m    0.         9.4587n  842.1738m  700.0000m 
 -595.40678m    0.         9.4500n  842.0324m  700.0000m 
 -595.30678m    0.         9.4414n  841.8909m  700.0000m 
 -595.20678m    0.         9.4327n  841.7495m  700.0000m 
 -595.10678m    0.         9.4241n  841.6081m  700.0000m 
 -595.00678m    0.         9.4155n  841.4667m  700.0000m 
 -594.90678m    0.         9.4069n  841.3252m  700.0000m 
 -594.80678m    0.         9.3984n  841.1838m  700.0000m 
 -594.70678m    0.         9.3898n  841.0424m  700.0000m 
 -594.60678m    0.         9.3813n  840.9010m  700.0000m 
 -594.50678m    0.         9.3727n  840.7596m  700.0000m 
 -594.40678m    0.         9.3642n  840.6181m  700.0000m 
 -594.30678m    0.         9.3557n  840.4767m  700.0000m 
 -594.20678m    0.         9.3472n  840.3353m  700.0000m 
 -594.10678m    0.         9.3387n  840.1939m  700.0000m 
 -594.00678m    0.         9.3303n  840.0525m  700.0000m 
 -593.90678m    0.         9.3218n  839.9110m  700.0000m 
 -593.80678m    0.         9.3134n  839.7696m  700.0000m 
 -593.70678m    0.         9.3050n  839.6282m  700.0000m 
 -593.60678m    0.         9.2966n  839.4868m  700.0000m 
 -593.50678m    0.         9.2882n  839.3453m  700.0000m 
 -593.40678m    0.         9.2798n  839.2039m  700.0000m 
 -593.30678m    0.         9.2715n  839.0625m  700.0000m 
 -593.20678m    0.         9.2632n  838.9211m  700.0000m 
 -593.10678m    0.         9.2548n  838.7797m  700.0000m 
 -593.00678m    0.         9.2465n  838.6382m  700.0000m 
 -592.90678m    0.         9.2382n  838.4968m  700.0000m 
 -592.80678m    0.         9.2299n  838.3554m  700.0000m 
 -592.70678m    0.         9.2217n  838.2140m  700.0000m 
 -592.60678m    0.         9.2134n  838.0726m  700.0000m 
 -592.50678m    0.         9.2052n  837.9311m  700.0000m 
 -592.40678m    0.         9.1970n  837.7897m  700.0000m 
 -592.30678m    0.         9.1888n  837.6483m  700.0000m 
 -592.20678m    0.         9.1806n  837.5069m  700.0000m 
 -592.10678m    0.         9.1724n  837.3654m  700.0000m 
 -592.00678m    0.         9.1643n  837.2240m  700.0000m 
 -591.90678m    0.         9.1561n  837.0826m  700.0000m 
 -591.80678m    0.         9.1480n  836.9412m  700.0000m 
 -591.70678m    0.         9.1399n  836.7998m  700.0000m 
 -591.60678m    0.         9.1318n  836.6583m  700.0000m 
 -591.50678m    0.         9.1237n  836.5169m  700.0000m 
 -591.40678m    0.         9.1157n  836.3755m  700.0000m 
 -591.30678m    0.         9.1076n  836.2341m  700.0000m 
 -591.20678m    0.         9.0996n  836.0927m  700.0000m 
 -591.10678m    0.         9.0916n  835.9512m  700.0000m 
 -591.00678m    0.         9.0836n  835.8098m  700.0000m 
 -590.90678m    0.         9.0756n  835.6684m  700.0000m 
 -590.80678m    0.         9.0677n  835.5270m  700.0000m 
 -590.70678m    0.         9.0597n  835.3856m  700.0000m 
 -590.60678m    0.         9.0518n  835.2441m  700.0000m 
 -590.50678m    0.         9.0439n  835.1027m  700.0000m 
 -590.40678m    0.         9.0360n  834.9613m  700.0000m 
 -590.30678m    0.         9.0281n  834.8199m  700.0000m 
 -590.20678m    0.         9.0203n  834.6784m  700.0000m 
 -590.10678m    0.         9.0124n  834.5370m  700.0000m 
 -590.00678m    0.         9.0046n  834.3956m  700.0000m 
 -589.90678m    0.         8.9968n  834.2542m  700.0000m 
 -589.80678m    0.         8.9890n  834.1128m  700.0000m 
 -589.70678m    0.         8.9812n  833.9713m  700.0000m 
 -589.60678m    0.         8.9735n  833.8299m  700.0000m 
 -589.50678m    0.         8.9658n  833.6885m  700.0000m 
 -589.40678m    0.         8.9580n  833.5471m  700.0000m 
 -589.30678m    0.         8.9503n  833.4057m  700.0000m 
 -589.20678m    0.         8.9427n  833.2642m  700.0000m 
 -589.10678m    0.         8.9350n  833.1228m  700.0000m 
 -589.00678m    0.         8.9273n  832.9814m  700.0000m 
 -588.90678m    0.         8.9197n  832.8400m  700.0000m 
 -588.80678m    0.         8.9121n  832.6985m  700.0000m 
 -588.70678m    0.         8.9045n  832.5571m  700.0000m 
 -588.60678m    0.         8.8969n  832.4157m  700.0000m 
 -588.50678m    0.         8.8894n  832.2743m  700.0000m 
 -588.40678m    0.         8.8818n  832.1329m  700.0000m 
 -588.30678m    0.         8.8743n  831.9914m  700.0000m 
 -588.20678m    0.         8.8668n  831.8500m  700.0000m 
 -588.10678m    0.         8.8593n  831.7086m  700.0000m 
 -588.00678m    0.         8.8518n  831.5672m  700.0000m 
 -587.90678m    0.         8.8444n  831.4258m  700.0000m 
 -587.80678m    0.         8.8370n  831.2843m  700.0000m 
 -587.70678m    0.         8.8296n  831.1429m  700.0000m 
 -587.60678m    0.         8.8222n  831.0015m  700.0000m 
 -587.50678m    0.         8.8148n  830.8601m  700.0000m 
 -587.40678m    0.         8.8074n  830.7186m  700.0000m 
 -587.30678m    0.         8.8001n  830.5772m  700.0000m 
 -587.20678m    0.         8.7928n  830.4358m  700.0000m 
 -587.10678m    0.         8.7855n  830.2944m  700.0000m 
 -587.00678m    0.         8.7782n  830.1530m  700.0000m 
 -586.90678m    0.         8.7709n  830.0115m  700.0000m 
 -586.80678m    0.         8.7637n  829.8701m  700.0000m 
 -586.70678m    0.         8.7565n  829.7287m  700.0000m 
 -586.60678m    0.         8.7493n  829.5873m  700.0000m 
 -586.50678m    0.         8.7421n  829.4459m  700.0000m 
 -586.40678m    0.         8.7349n  829.3044m  700.0000m 
 -586.30678m    0.         8.7278n  829.1630m  700.0000m 
 -586.20678m    0.         8.7207n  829.0216m  700.0000m 
 -586.10678m    0.         8.7136n  828.8802m  700.0000m 
 -586.00678m    0.         8.7065n  828.7387m  700.0000m 
 -585.90678m    0.         8.6994n  828.5973m  700.0000m 
 -585.80678m    0.         8.6924n  828.4559m  700.0000m 
 -585.70678m    0.         8.6854n  828.3145m  700.0000m 
 -585.60678m    0.         8.6784n  828.1731m  700.0000m 
 -585.50678m    0.         8.6714n  828.0316m  700.0000m 
 -585.40678m    0.         8.6644n  827.8902m  700.0000m 
 -585.30678m    0.         8.6575n  827.7488m  700.0000m 
 -585.20678m    0.         8.6506n  827.6074m  700.0000m 
 -585.10678m    0.         8.6437n  827.4660m  700.0000m 
 -585.00678m    0.         8.6368n  827.3245m  700.0000m 
 -584.90678m    0.         8.6299n  827.1831m  700.0000m 
 -584.80678m    0.         8.6231n  827.0417m  700.0000m 
 -584.70678m    0.         8.6163n  826.9003m  700.0000m 
 -584.60678m    0.         8.6095n  826.7588m  700.0000m 
 -584.50678m    0.         8.6027n  826.6174m  700.0000m 
 -584.40678m    0.         8.5960n  826.4760m  700.0000m 
 -584.30678m    0.         8.5892n  826.3346m  700.0000m 
 -584.20678m    0.         8.5825n  826.1932m  700.0000m 
 -584.10678m    0.         8.5758n  826.0517m  700.0000m 
 -584.00678m    0.         8.5692n  825.9103m  700.0000m 
 -583.90678m    0.         8.5625n  825.7689m  700.0000m 
 -583.80678m    0.         8.5559n  825.6275m  700.0000m 
 -583.70678m    0.         8.5493n  825.4861m  700.0000m 
 -583.60678m    0.         8.5427n  825.3446m  700.0000m 
 -583.50678m    0.         8.5362n  825.2032m  700.0000m 
 -583.40678m    0.         8.5296n  825.0618m  700.0000m 
 -583.30678m    0.         8.5231n  824.9204m  700.0000m 
 -583.20678m    0.         8.5166n  824.7789m  700.0000m 
 -583.10678m    0.         8.5102n  824.6375m  700.0000m 
 -583.00678m    0.         8.5037n  824.4961m  700.0000m 
 -582.90678m    0.         8.4973n  824.3547m  700.0000m 
 -582.80678m    0.         8.4909n  824.2133m  700.0000m 
 -582.70678m    0.         8.4845n  824.0718m  700.0000m 
 -582.60678m    0.         8.4782n  823.9304m  700.0000m 
 -582.50678m    0.         8.4718n  823.7890m  700.0000m 
 -582.40678m    0.         8.4655n  823.6476m  700.0000m 
 -582.30678m    0.         8.4592n  823.5062m  700.0000m 
 -582.20678m    0.         8.4529n  823.3647m  700.0000m 
 -582.10678m    0.         8.4467n  823.2233m  700.0000m 
 -582.00678m    0.         8.4405n  823.0819m  700.0000m 
 -581.90678m    0.         8.4343n  822.9405m  700.0000m 
 -581.80678m    0.         8.4281n  822.7990m  700.0000m 
 -581.70678m    0.         8.4220n  822.6576m  700.0000m 
 -581.60678m    0.         8.4158n  822.5162m  700.0000m 
 -581.50678m    0.         8.4097n  822.3748m  700.0000m 
 -581.40678m    0.         8.4037n  822.2334m  700.0000m 
 -581.30678m    0.         8.3976n  822.0919m  700.0000m 
 -581.20678m    0.         8.3916n  821.9505m  700.0000m 
 -581.10678m    0.         8.3856n  821.8091m  700.0000m 
 -581.00678m    0.         8.3796n  821.6677m  700.0000m 
 -580.90678m    0.         8.3736n  821.5263m  700.0000m 
 -580.80678m    0.         8.3677n  821.3848m  700.0000m 
 -580.70678m    0.         8.3618n  821.2434m  700.0000m 
 -580.60678m    0.         8.3559n  821.1020m  700.0000m 
 -580.50678m    0.         8.3500n  820.9606m  700.0000m 
 -580.40678m    0.         8.3442n  820.8191m  700.0000m 
 -580.30678m    0.         8.3383n  820.6777m  700.0000m 
 -580.20678m    0.         8.3326n  820.5363m  700.0000m 
 -580.10678m    0.         8.3268n  820.3949m  700.0000m 
 -580.00678m    0.         8.3210n  820.2535m  700.0000m 
 -579.90678m    0.         8.3153n  820.1120m  700.0000m 
 -579.80678m    0.         8.3096n  819.9706m  700.0000m 
 -579.70678m    0.         8.3040n  819.8292m  700.0000m 
 -579.60678m    0.         8.2983n  819.6878m  700.0000m 
 -579.50678m    0.         8.2927n  819.5464m  700.0000m 
 -579.40678m    0.         8.2871n  819.4049m  700.0000m 
 -579.30678m    0.         8.2815n  819.2635m  700.0000m 
 -579.20678m    0.         8.2760n  819.1221m  700.0000m 
 -579.10678m    0.         8.2705n  818.9807m  700.0000m 
 -579.00678m    0.         8.2650n  818.8393m  700.0000m 
 -578.90678m    0.         8.2595n  818.6978m  700.0000m 
 -578.80678m    0.         8.2541n  818.5564m  700.0000m 
 -578.70678m    0.         8.2487n  818.4150m  700.0000m 
 -578.60678m    0.         8.2433n  818.2736m  700.0000m 
 -578.50678m    0.         8.2379n  818.1321m  700.0000m 
 -578.40678m    0.         8.2326n  817.9907m  700.0000m 
 -578.30678m    0.         8.2273n  817.8493m  700.0000m 
 -578.20678m    0.         8.2220n  817.7079m  700.0000m 
 -578.10678m    0.         8.2167n  817.5665m  700.0000m 
 -578.00678m    0.         8.2115n  817.4250m  700.0000m 
 -577.90678m    0.         8.2063n  817.2836m  700.0000m 
 -577.80678m    0.         8.2011n  817.1422m  700.0000m 
 -577.70678m    0.         8.1960n  817.0008m  700.0000m 
 -577.60678m    0.         8.1908n  816.8594m  700.0000m 
 -577.50678m    0.         8.1857n  816.7179m  700.0000m 
 -577.40678m    0.         8.1807n  816.5765m  700.0000m 
 -577.30678m    0.         8.1756n  816.4351m  700.0000m 
 -577.20678m    0.         8.1706n  816.2937m  700.0000m 
 -577.10678m    0.         8.1656n  816.1522m  700.0000m 
 -577.00678m    0.         8.1606n  816.0108m  700.0000m 
 -576.90678m    0.         8.1557n  815.8694m  700.0000m 
 -576.80678m    0.         8.1508n  815.7280m  700.0000m 
 -576.70678m    0.         8.1459n  815.5866m  700.0000m 
 -576.60678m    0.         8.1411n  815.4451m  700.0000m 
 -576.50678m    0.         8.1362n  815.3037m  700.0000m 
 -576.40678m    0.         8.1314n  815.1623m  700.0000m 
 -576.30678m    0.         8.1267n  815.0209m  700.0000m 
 -576.20678m    0.         8.1219n  814.8795m  700.0000m 
 -576.10678m    0.         8.1172n  814.7380m  700.0000m 
 -576.00678m    0.         8.1125n  814.5966m  700.0000m 
 -575.90678m    0.         8.1078n  814.4552m  700.0000m 
 -575.80678m    0.         8.1032n  814.3138m  700.0000m 
 -575.70678m    0.         8.0986n  814.1723m  700.0000m 
 -575.60678m    0.         8.0940n  814.0309m  700.0000m 
 -575.50678m    0.         8.0895n  813.8895m  700.0000m 
 -575.40678m    0.         8.0850n  813.7481m  700.0000m 
 -575.30678m    0.         8.0805n  813.6067m  700.0000m 
 -575.20678m    0.         8.0760n  813.4652m  700.0000m 
 -575.10678m    0.         8.0716n  813.3238m  700.0000m 
 -575.00678m    0.         8.0672n  813.1824m  700.0000m 
 -574.90678m    0.         8.0628n  813.0410m  700.0000m 
 -574.80678m    0.         8.0584n  812.8996m  700.0000m 
 -574.70678m    0.         8.0541n  812.7581m  700.0000m 
 -574.60678m    0.         8.0498n  812.6167m  700.0000m 
 -574.50678m    0.         8.0456n  812.4753m  700.0000m 
 -574.40678m    0.         8.0413n  812.3339m  700.0000m 
 -574.30678m    0.         8.0371n  812.1924m  700.0000m 
 -574.20678m    0.         8.0330n  812.0510m  700.0000m 
 -574.10678m    0.         8.0288n  811.9096m  700.0000m 
 -574.00678m    0.         8.0247n  811.7682m  700.0000m 
 -573.90678m    0.         8.0206n  811.6268m  700.0000m 
 -573.80678m    0.         8.0166n  811.4853m  700.0000m 
 -573.70678m    0.         8.0126n  811.3439m  700.0000m 
 -573.60678m    0.         8.0086n  811.2025m  700.0000m 
 -573.50678m    0.         8.0046n  811.0611m  700.0000m 
 -573.40678m    0.         8.0007n  810.9197m  700.0000m 
 -573.30678m    0.         7.9968n  810.7782m  700.0000m 
 -573.20678m    0.         7.9929n  810.6368m  700.0000m 
 -573.10678m    0.         7.9890n  810.4954m  700.0000m 
 -573.00678m    0.         7.9852n  810.3540m  700.0000m 
 -572.90678m    0.         7.9815n  810.2125m  700.0000m 
 -572.80678m    0.         7.9777n  810.0711m  700.0000m 
 -572.70678m    0.         7.9740n  809.9297m  700.0000m 
 -572.60678m    0.         7.9703n  809.7883m  700.0000m 
 -572.50678m    0.         7.9666n  809.6469m  700.0000m 
 -572.40678m    0.         7.9630n  809.5054m  700.0000m 
 -572.30678m    0.         7.9594n  809.3640m  700.0000m 
 -572.20678m    0.         7.9558n  809.2226m  700.0000m 
[...]
  647.99322m  341.9563m 
  648.09322m  341.8563m 
  648.19322m  341.7563m 
  648.29322m  341.6563m 
  648.39322m  341.5563m 
  648.49322m  341.4563m 
  648.59322m  341.3563m 
  648.69322m  341.2563m 
  648.79322m  341.1563m 
  648.89322m  341.0563m 
  648.99322m  340.9563m 
  649.09322m  340.8563m 
  649.19322m  340.7563m 
  649.29322m  340.6563m 
  649.39322m  340.5563m 
  649.49322m  340.4563m 
  649.59322m  340.3563m 
  649.69322m  340.2563m 
  649.79322m  340.1563m 
  649.89322m  340.0563m 
  649.99322m  339.9563m 
  650.09322m  339.8563m 
  650.19322m  339.7563m 
  650.29322m  339.6563m 
  650.39322m  339.5563m 
  650.49322m  339.4563m 
  650.59322m  339.3563m 
  650.69322m  339.2563m 
  650.79322m  339.1563m 
  650.89322m  339.0563m 
  650.99322m  338.9563m 
  651.09322m  338.8563m 
  651.19322m  338.7563m 
  651.29322m  338.6563m 
  651.39322m  338.5563m 
  651.49322m  338.4563m 
  651.59322m  338.3563m 
  651.69322m  338.2563m 
  651.79322m  338.1563m 
  651.89322m  338.0563m 
  651.99322m  337.9563m 
  652.09322m  337.8563m 
  652.19322m  337.7563m 
  652.29322m  337.6563m 
  652.39322m  337.5563m 
  652.49322m  337.4563m 
  652.59322m  337.3563m 
  652.69322m  337.2563m 
  652.79322m  337.1563m 
  652.89322m  337.0563m 
  652.99322m  336.9563m 
  653.09322m  336.8563m 
  653.19322m  336.7563m 
  653.29322m  336.6563m 
  653.39322m  336.5563m 
  653.49322m  336.4563m 
  653.59322m  336.3563m 
  653.69322m  336.2563m 
  653.79322m  336.1563m 
  653.89322m  336.0563m 
  653.99322m  335.9563m 
  654.09322m  335.8563m 
  654.19322m  335.7563m 
  654.29322m  335.6563m 
  654.39322m  335.5563m 
  654.49322m  335.4563m 
  654.59322m  335.3563m 
  654.69322m  335.2563m 
  654.79322m  335.1563m 
  654.89322m  335.0563m 
  654.99322m  334.9563m 
  655.09322m  334.8563m 
  655.19322m  334.7563m 
  655.29322m  334.6563m 
  655.39322m  334.5563m 
  655.49322m  334.4563m 
  655.59322m  334.3563m 
  655.69322m  334.2563m 
  655.79322m  334.1563m 
  655.89322m  334.0563m 
  655.99322m  333.9563m 
  656.09322m  333.8563m 
  656.19322m  333.7563m 
  656.29322m  333.6563m 
  656.39322m  333.5563m 
  656.49322m  333.4563m 
  656.59322m  333.3563m 
  656.69322m  333.2563m 
  656.79322m  333.1563m 
  656.89322m  333.0563m 
  656.99322m  332.9563m 
  657.09322m  332.8563m 
  657.19322m  332.7563m 
  657.29322m  332.6563m 
  657.39322m  332.5563m 
  657.49322m  332.4563m 
  657.59322m  332.3563m 
  657.69322m  332.2563m 
  657.79322m  332.1563m 
  657.89322m  332.0563m 
  657.99322m  331.9563m 
  658.09322m  331.8563m 
  658.19322m  331.7563m 
  658.29322m  331.6563m 
  658.39322m  331.5563m 
  658.49322m  331.4563m 
  658.59322m  331.3563m 
  658.69322m  331.2563m 
  658.79322m  331.1563m 
  658.89322m  331.0563m 
  658.99322m  330.9563m 
  659.09322m  330.8563m 
  659.19322m  330.7563m 
  659.29322m  330.6563m 
  659.39322m  330.5563m 
  659.49322m  330.4563m 
  659.59322m  330.3563m 
  659.69322m  330.2563m 
  659.79322m  330.1563m 
  659.89322m  330.0563m 
  659.99322m  329.9563m 
  660.09322m  329.8563m 
  660.19322m  329.7563m 
  660.29322m  329.6563m 
  660.39322m  329.5563m 
  660.49322m  329.4563m 
  660.59322m  329.3563m 
  660.69322m  329.2563m 
  660.79322m  329.1563m 
  660.89322m  329.0563m 
  660.99322m  328.9563m 
  661.09322m  328.8563m 
  661.19322m  328.7563m 
  661.29322m  328.6563m 
  661.39322m  328.5563m 
  661.49322m  328.4563m 
  661.59322m  328.3563m 
  661.69322m  328.2563m 
  661.79322m  328.1563m 
  661.89322m  328.0563m 
  661.99322m  327.9563m 
  662.09322m  327.8563m 
  662.19322m  327.7563m 
  662.29322m  327.6563m 
  662.39322m  327.5563m 
  662.49322m  327.4563m 
  662.59322m  327.3563m 
  662.69322m  327.2563m 
  662.79322m  327.1563m 
  662.89322m  327.0563m 
  662.99322m  326.9563m 
  663.09322m  326.8563m 
  663.19322m  326.7563m 
  663.29322m  326.6563m 
  663.39322m  326.5563m 
  663.49322m  326.4563m 
  663.59322m  326.3563m 
  663.69322m  326.2563m 
  663.79322m  326.1563m 
  663.89322m  326.0563m 
  663.99322m  325.9563m 
  664.09322m  325.8563m 
  664.19322m  325.7563m 
  664.29322m  325.6563m 
  664.39322m  325.5563m 
  664.49322m  325.4563m 
  664.59322m  325.3563m 
  664.69322m  325.2563m 
  664.79322m  325.1563m 
  664.89322m  325.0563m 
  664.99322m  324.9563m 
  665.09322m  324.8563m 
  665.19322m  324.7563m 
  665.29322m  324.6563m 
  665.39322m  324.5563m 
  665.49322m  324.4563m 
  665.59322m  324.3563m 
  665.69322m  324.2563m 
  665.79322m  324.1563m 
  665.89322m  324.0563m 
  665.99322m  323.9563m 
  666.09322m  323.8563m 
  666.19322m  323.7563m 
  666.29322m  323.6563m 
  666.39322m  323.5563m 
  666.49322m  323.4563m 
  666.59322m  323.3563m 
  666.69322m  323.2563m 
  666.79322m  323.1563m 
  666.89322m  323.0563m 
  666.99322m  322.9563m 
  667.09322m  322.8563m 
  667.19322m  322.7563m 
  667.29322m  322.6563m 
  667.39322m  322.5563m 
  667.49322m  322.4563m 
  667.59322m  322.3563m 
  667.69322m  322.2563m 
  667.79322m  322.1563m 
  667.89322m  322.0563m 
  667.99322m  321.9563m 
  668.09322m  321.8563m 
  668.19322m  321.7563m 
  668.29322m  321.6563m 
  668.39322m  321.5563m 
  668.49322m  321.4563m 
  668.59322m  321.3563m 
  668.69322m  321.2563m 
  668.79322m  321.1563m 
  668.89322m  321.0563m 
  668.99322m  320.9563m 
  669.09322m  320.8563m 
  669.19322m  320.7563m 
  669.29322m  320.6563m 
  669.39322m  320.5563m 
  669.49322m  320.4563m 
  669.59322m  320.3563m 
  669.69322m  320.2563m 
  669.79322m  320.1563m 
  669.89322m  320.0563m 
  669.99322m  319.9563m 
  670.09322m  319.8563m 
  670.19322m  319.7563m 
  670.29322m  319.6563m 
  670.39322m  319.5563m 
  670.49322m  319.4563m 
  670.59322m  319.3563m 
  670.69322m  319.2563m 
  670.79322m  319.1563m 
  670.89322m  319.0563m 
  670.99322m  318.9563m 
  671.09322m  318.8563m 
  671.19322m  318.7563m 
  671.29322m  318.6563m 
  671.39322m  318.5563m 
  671.49322m  318.4563m 
  671.59322m  318.3563m 
  671.69322m  318.2563m 
  671.79322m  318.1563m 
  671.89322m  318.0563m 
  671.99322m  317.9563m 
  672.09322m  317.8563m 
  672.19322m  317.7563m 
  672.29322m  317.6563m 
  672.39322m  317.5563m 
  672.49322m  317.4563m 
  672.59322m  317.3563m 
  672.69322m  317.2563m 
  672.79322m  317.1563m 
  672.89322m  317.0563m 
  672.99322m  316.9563m 
  673.09322m  316.8563m 
  673.19322m  316.7563m 
  673.29322m  316.6563m 
  673.39322m  316.5563m 
  673.49322m  316.4563m 
  673.59322m  316.3563m 
  673.69322m  316.2563m 
  673.79322m  316.1563m 
  673.89322m  316.0563m 
  673.99322m  315.9563m 
  674.09322m  315.8563m 
  674.19322m  315.7563m 
  674.29322m  315.6563m 
  674.39322m  315.5563m 
  674.49322m  315.4563m 
  674.59322m  315.3563m 
  674.69322m  315.2563m 
  674.79322m  315.1563m 
  674.89322m  315.0563m 
  674.99322m  314.9563m 
  675.09322m  314.8563m 
  675.19322m  314.7563m 
  675.29322m  314.6563m 
  675.39322m  314.5563m 
  675.49322m  314.4563m 
  675.59322m  314.3563m 
  675.69322m  314.2563m 
  675.79322m  314.1563m 
  675.89322m  314.0563m 
  675.99322m  313.9563m 
  676.09322m  313.8563m 
  676.19322m  313.7563m 
  676.29322m  313.6563m 
  676.39322m  313.5563m 
  676.49322m  313.4563m 
  676.59322m  313.3563m 
  676.69322m  313.2563m 
  676.79322m  313.1563m 
  676.89322m  313.0563m 
  676.99322m  312.9563m 
  677.09322m  312.8563m 
  677.19322m  312.7563m 
  677.29322m  312.6563m 
  677.39322m  312.5563m 
  677.49322m  312.4563m 
  677.59322m  312.3563m 
  677.69322m  312.2563m 
  677.79322m  312.1563m 
  677.89322m  312.0563m 
  677.99322m  311.9563m 
  678.09322m  311.8563m 
  678.19322m  311.7563m 
  678.29322m  311.6563m 
  678.39322m  311.5563m 
  678.49322m  311.4563m 
  678.59322m  311.3563m 
  678.69322m  311.2563m 
  678.79322m  311.1563m 
  678.89322m  311.0563m 
  678.99322m  310.9563m 
  679.09322m  310.8563m 
  679.19322m  310.7563m 
  679.29322m  310.6563m 
  679.39322m  310.5563m 
  679.49322m  310.4563m 
  679.59322m  310.3563m 
  679.69322m  310.2563m 
  679.79322m  310.1563m 
  679.89322m  310.0563m 
  679.99322m  309.9563m 
  680.09322m  309.8563m 
  680.19322m  309.7563m 
  680.29322m  309.6563m 
  680.39322m  309.5563m 
  680.49322m  309.4563m 
  680.59322m  309.3563m 
  680.69322m  309.2563m 
  680.79322m  309.1563m 
  680.89322m  309.0563m 
  680.99322m  308.9563m 
  681.09322m  308.8563m 
  681.19322m  308.7563m 
  681.29322m  308.6563m 
  681.39322m  308.5563m 
  681.49322m  308.4563m 
  681.59322m  308.3563m 
  681.69322m  308.2563m 
  681.79322m  308.1563m 
  681.89322m  308.0563m 
  681.99322m  307.9563m 
  682.09322m  307.8563m 
  682.19322m  307.7563m 
  682.29322m  307.6563m 
  682.39322m  307.5563m 
  682.49322m  307.4563m 
  682.59322m  307.3563m 
  682.69322m  307.2563m 
  682.79322m  307.1563m 
  682.89322m  307.0563m 
  682.99322m  306.9563m 
  683.09322m  306.8563m 
  683.19322m  306.7563m 
  683.29322m  306.6563m 
  683.39322m  306.5563m 
  683.49322m  306.4563m 
  683.59322m  306.3563m 
  683.69322m  306.2563m 
  683.79322m  306.1563m 
  683.89322m  306.0563m 
  683.99322m  305.9563m 
  684.09322m  305.8563m 
  684.19322m  305.7563m 
  684.29322m  305.6563m 
  684.39322m  305.5563m 
  684.49322m  305.4563m 
  684.59322m  305.3563m 
  684.69322m  305.2563m 
  684.79322m  305.1563m 
  684.89322m  305.0563m 
  684.99322m  304.9563m 
  685.09322m  304.8563m 
  685.19322m  304.7563m 
  685.29322m  304.6563m 
  685.39322m  304.5563m 
  685.49322m  304.4563m 
  685.59322m  304.3563m 
  685.69322m  304.2563m 
  685.79322m  304.1563m 
  685.89322m  304.0563m 
  685.99322m  303.9563m 
  686.09322m  303.8563m 
  686.19322m  303.7563m 
  686.29322m  303.6563m 
  686.39322m  303.5563m 
  686.49322m  303.4563m 
  686.59322m  303.3563m 
  686.69322m  303.2563m 
  686.79322m  303.1563m 
  686.89322m  303.0563m 
  686.99322m  302.9563m 
  687.09322m  302.8563m 
  687.19322m  302.7563m 
  687.29322m  302.6563m 
  687.39322m  302.5563m 
  687.49322m  302.4563m 
  687.59322m  302.3563m 
  687.69322m  302.2563m 
  687.79322m  302.1563m 
  687.89322m  302.0563m 
  687.99322m  301.9563m 
  688.09322m  301.8563m 
  688.19322m  301.7563m 
  688.29322m  301.6563m 
  688.39322m  301.5563m 
  688.49322m  301.4563m 
  688.59322m  301.3563m 
  688.69322m  301.2563m 
  688.79322m  301.1563m 
  688.89322m  301.0563m 
  688.99322m  300.9563m 
  689.09322m  300.8563m 
  689.19322m  300.7563m 
  689.29322m  300.6563m 
  689.39322m  300.5563m 
  689.49322m  300.4563m 
  689.59322m  300.3563m 
  689.69322m  300.2563m 
  689.79322m  300.1563m 
  689.89322m  300.0563m 
  689.99322m  299.9563m 
  690.09322m  299.8563m 
  690.19322m  299.7563m 
  690.29322m  299.6563m 
  690.39322m  299.5563m 
  690.49322m  299.4563m 
  690.59322m  299.3563m 
  690.69322m  299.2563m 
  690.79322m  299.1563m 
  690.89322m  299.0563m 
  690.99322m  298.9563m 
  691.09322m  298.8563m 
  691.19322m  298.7563m 
  691.29322m  298.6563m 
  691.39322m  298.5563m 
  691.49322m  298.4563m 
  691.59322m  298.3563m 
  691.69322m  298.2563m 
  691.79322m  298.1563m 
  691.89322m  298.0563m 
  691.99322m  297.9563m 
  692.09322m  297.8563m 
  692.19322m  297.7563m 
  692.29322m  297.6563m 
  692.39322m  297.5563m 
  692.49322m  297.4563m 
  692.59322m  297.3563m 
  692.69322m  297.2563m 
  692.79322m  297.1563m 
  692.89322m  297.0563m 
  692.99322m  296.9563m 
  693.09322m  296.8563m 
  693.19322m  296.7563m 
  693.29322m  296.6563m 
  693.39322m  296.5563m 
  693.49322m  296.4563m 
  693.59322m  296.3563m 
  693.69322m  296.2563m 
  693.79322m  296.1563m 
  693.89322m  296.0563m 
  693.99322m  295.9563m 
  694.09322m  295.8563m 
  694.19322m  295.7563m 
  694.29322m  295.6563m 
  694.39322m  295.5563m 
  694.49322m  295.4563m 
  694.59322m  295.3563m 
  694.69322m  295.2563m 
  694.79322m  295.1563m 
  694.89322m  295.0563m 
  694.99322m  294.9563m 
  695.09322m  294.8563m 
  695.19322m  294.7563m 
  695.29322m  294.6563m 
  695.39322m  294.5563m 
  695.49322m  294.4563m 
  695.59322m  294.3563m 
  695.69322m  294.2563m 
  695.79322m  294.1563m 
  695.89322m  294.0563m 
  695.99322m  293.9563m 
  696.09322m  293.8563m 
  696.19322m  293.7563m 
  696.29322m  293.6563m 
  696.39322m  293.5563m 
  696.49322m  293.4563m 
  696.59322m  293.3563m 
  696.69322m  293.2563m 
  696.79322m  293.1563m 
  696.89322m  293.0563m 
  696.99322m  292.9563m 
  697.09322m  292.8563m 
  697.19322m  292.7563m 
  697.29322m  292.6563m 
  697.39322m  292.5563m 
  697.49322m  292.4563m 
  697.59322m  292.3563m 
  697.69322m  292.2563m 
  697.79322m  292.1563m 
  697.89322m  292.0563m 
  697.99322m  291.9563m 
  698.09322m  291.8563m 
  698.19322m  291.7563m 
  698.29322m  291.6563m 
  698.39322m  291.5563m 
  698.49322m  291.4563m 
  698.59322m  291.3563m 
  698.69322m  291.2563m 
  698.79322m  291.1563m 
  698.89322m  291.0563m 
  698.99322m  290.9563m 
  699.09322m  290.8563m 
  699.19322m  290.7563m 
  699.29322m  290.6563m 
  699.39322m  290.5563m 
  699.49322m  290.4563m 
  699.59322m  290.3563m 
  699.69322m  290.2563m 
  699.79322m  290.1563m 
  699.89322m  290.0563m 
  699.99322m  289.9563m 
  700.09322m  289.8563m 
  700.19322m  289.7563m 
  700.29322m  289.6563m 
  700.39322m  289.5563m 
  700.49322m  289.4563m 
  700.59322m  289.3563m 
  700.69322m  289.2563m 
  700.79322m  289.1563m 
  700.89322m  289.0563m 
  700.99322m  288.9563m 
  701.09322m  288.8563m 
  701.19322m  288.7563m 
  701.29322m  288.6563m 
  701.39322m  288.5563m 
  701.49322m  288.4563m 
  701.59322m  288.3563m 
  701.69322m  288.2563m 
  701.79322m  288.1563m 
  701.89322m  288.0563m 
  701.99322m  287.9563m 
  702.09322m  287.8563m 
  702.19322m  287.7563m 
  702.29322m  287.6563m 
  702.39322m  287.5563m 
  702.49322m  287.4563m 
  702.59322m  287.3563m 
  702.69322m  287.2563m 
  702.79322m  287.1563m 
  702.89322m  287.0563m 
  702.99322m  286.9563m 
  703.09322m  286.8563m 
  703.19322m  286.7563m 
  703.29322m  286.6563m 
  703.39322m  286.5563m 
  703.49322m  286.4563m 
  703.59322m  286.3563m 
  703.69322m  286.2563m 
  703.79322m  286.1563m 
  703.89322m  286.0563m 
  703.99322m  285.9563m 
  704.09322m  285.8563m 
  704.19322m  285.7563m 
  704.29322m  285.6563m 
  704.39322m  285.5563m 
  704.49322m  285.4563m 
  704.59322m  285.3563m 
  704.69322m  285.2563m 
  704.79322m  285.1563m 
  704.89322m  285.0563m 
  704.99322m  284.9563m 
  705.09322m  284.8563m 
  705.19322m  284.7563m 
  705.29322m  284.6563m 
  705.39322m  284.5563m 
  705.49322m  284.4563m 
  705.59322m  284.3563m 
  705.69322m  284.2563m 
  705.79322m  284.1563m 
  705.89322m  284.0563m 
  705.99322m  283.9563m 
  706.09322m  283.8563m 
  706.19322m  283.7563m 
  706.29322m  283.6563m 
  706.39322m  283.5563m 
  706.49322m  283.4563m 
  706.59322m  283.3563m 
  706.69322m  283.2563m 
  706.79322m  283.1563m 
  706.89322m  283.0563m 
  706.99322m  282.9563m 
  707.09322m  282.8563m 
y
 cross_point=-494.9747m
 max_1= 431.6740m    at=-253.1068m
             from=-494.9747m    to= 494.9747m
 max_2= 431.6740m    at= 253.0932m
             from=-494.9747m    to= 494.9747m
 snm= 305.2396m
1****** HSPICE -- Q-2020.03-SP2-2 linux64 (Nov  1 2020) ******                  
 ******  
 .title noise margin in hold operation

 ****** operating point information tnom=  25.000 temp=  25.000 ******
 ****** operating point status is all       simulation time is     0.     
    node    =voltage      node    =voltage      node    =voltage

 +0:bl      = 700.0000m 0:blb     = 700.0000m 0:gl      = 369.3009m
 +0:gr      = 369.3009m 0:q       = 369.3009m 0:qb      = 369.3009m
 +0:u       =   0.      0:v1      = 522.2703m 0:v2      = 522.2703m
 +0:vdd     = 700.0000m 0:wl      =   0.      0:x       = 658.1762m


 **** voltage sources

 subckt                                   
 element  0:vu       0:vvdd     0:vwl     
  volts      0.       700.0000m    0.     
  current    0.      -998.3374n  305.0209f
  power      0.       698.8361n    0.     

     total voltage source power dissipation=  698.8361n       watts



 **** voltage-controlled voltage sources


 subckt                                              
 element  0:eli      0:ev1      0:eri      0:ev2     
  volts    369.3009m  522.2703m  369.3009m  522.2703m
  current   16.1798f    0.        16.1798f    0.     





 **** mosfets


 subckt                                                                    
 element  0:mpr      0:mnr      0:mpl      0:mnl      0:mnpr     0:mnpl    
 model    0:pmos_sra 0:nmos_sra 0:pmos_sra 0:nmos_sra 0:nmos_sra 0:nmos_sra
 region   Subth      Subth      Subth      Subth      Cutoff     Cutoff    
  id      -499.1686n  499.1686n -499.1686n  499.1686n  938.2452a  938.2452a
  ibs        0.         0.         0.         0.         0.         0.     
  ibd        0.         0.         0.         0.         0.         0.     
  vgs     -330.6991m  369.3009m -330.6991m  369.3009m -369.3009m -369.3009m
  vds     -330.6991m  369.3009m -330.6991m  369.3009m  330.6991m  330.6991m
  vbs      -41.8238m  658.1762m  -41.8238m  658.1762m  288.8753m  288.8753m
  vth     -334.7549m  408.4973m -334.7549m  408.4973m  408.7099m  408.7099m
  vdsat    -95.5226m   79.1197m  -95.5226m   79.1197m   70.6690m   70.6690m
  vod        4.0558m  -39.1964m    4.0558m  -39.1964m -778.0108m -778.0108m
  beta       1.6413m    2.1736m    1.6413m    2.1736m    2.1736m    2.1736m
  gam eff    0.         0.         0.         0.         0.         0.     
  gm        12.9907u   15.3998u   12.9907u   15.3998u  8.590e-21  8.590e-21
  gds      301.4608n  239.6269n  301.4608n  239.6269n  228.2566a  228.2566a
  gmb        4.8922p   12.0124p    4.8922p   12.0124p  1.316e-20  1.316e-20
  cdtot     10.1750a   10.2205a   10.1750a   10.2205a   10.2225a   10.2225a
  cgtot     31.2784a   26.1428a   31.2784a   26.1428a   20.4450a   20.4450a
  cstot     17.2863a   14.0661a   17.2863a   14.0661a   10.2225a   10.2225a
  cbtot      0.         0.         0.         0.         0.         0.     
  cgs       21.2138a   15.9421a   21.2138a   15.9421a   10.2225a   10.2225a
  cgd       10.0646a   10.2007a   10.0646a   10.2007a   10.2225a   10.2225a




          ***** job concluded
 ******  
 .title noise margin in hold operation

 ****** job statistics summary tnom=  25.000 temp=  25.000 ******
  
 ******  Machine Information  ******
 CPU:
 model name	: AMD EPYC 7713 64-Core Processor
 cpu MHz	: 2000.000
  
 OS:
 Linux version 3.10.0-1160.88.1.el7.x86_64 (mockbuild@kbuilder.bsys.centos.org) (gcc version 4.8.5 20150623 (Red Hat 4.8.5-44) (GCC) ) #1 SMP Tue Mar 7 15:41:52 UTC 2023


  ******  HSPICE Threads Information  ******

  Command Line Threads Count :     1
  Available CPU Count        :   256
  Actual Threads Count       :     1


  ******  Circuit Statistics  ******
  # nodes       =      13 # elements   =      15
  # resistors   =       0 # capacitors =       2 # inductors   =       0
  # mutual_inds =       0 # vccs       =       0 # vcvs        =       4
  # cccs        =       0 # ccvs       =       0 # volt_srcs   =       3
  # curr_srcs   =       0 # diodes     =       0 # bjts        =       0
  # jfets       =       0 # mosfets    =       6 # U elements  =       0
  # T elements  =       0 # W elements =       0 # B elements  =       0
  # S elements  =       0 # P elements =       0 # va device   =       0
  # vector_srcs =       0 # N elements =       0


  ******  Runtime Statistics (seconds)  ******

  analysis           time    # points   tot. iter  conv.iter
  op point           0.01           1          10
  dc sweep           1.11       14143       42435
  readin             0.01
  errchk             0.00
  setup              0.00
  output             0.00


           peak memory used        407.49 megabytes
           total cpu time            1.36 seconds
           total elapsed time        1.53 seconds
           job started at     20:32:40 03/19/2025
           job ended   at     20:32:42 03/19/2025
           job total runtime         1.53 seconds


 lic: Release hspice token(s) 
 lic: total license checkout elapse time:        0.15(s)
