 ****** HSPICE -- Q-2020.03-SP2-2 linux64 (Nov  1 2020) ******                  
  Copyright (c) 1986 - 2025 by Synopsys, Inc. All Rights Reserved.              
  This software and the associated documentation are proprietary
  to Synopsys, Inc. This software may only be used in accordance
  with the terms and conditions of a written license agreement with
  Synopsys, Inc. All other use, reproduction, or distribution of
  this software is strictly prohibited.
  Input File: SRAM_SNM_TT.sp                                                    
  Command line options: /RAID2/cad/synopsys/hspice/2020.03-sp2-2/hspice/linux64/hspice -i SRAM_SNM_TT.sp -o SRAM_SNM_TT.lis
  Start time: Wed Mar 19 22:13:46 2025
 lic:  
 lic: FLEXlm: SDK_12.6 
 lic: USER:   es25MCS042           HOSTNAME: ee28 
 lic: HOSTID: "d85ed3efc19a"       PID:      83315 
 lic: Using FLEXlm license file: 
 lic: 26585@lshc 
 lic: Checkout 1 hspice 
 lic: License/Maintenance for hspice will expire on 14-may-2025/2024.09 
 lic: 233(in_use)/1100(total) FLOATING license(s) on SERVER 26585@lshc 
 lic:   
  
      
             
 Warning:'Floating bulk' occurs 1 times
 Summary of floating bulk:
 -----------------------
 |Node      |Device    |
 |----------+----------|
 |x         |mpr       |
 -----------------------
              
 *****************************************************************
 ******  option summary
 ******
 runlvl  = 3         bypass  = 2.0000    
 ******
 .title noise margin in hold operation

 ****** dc transfer curves tnom=  25.000 temp=  25.000 ******
x

 volt         voltage    voltage    voltage    voltage   
             q          qb         gr         gl         
    0.        369.3009m  369.3009m  369.3009m  369.3009m 
  100.00000u  369.4396m  369.1621m  369.2982m  369.3035m 
  200.00000u  369.5784m  369.0233m  369.2956m  369.3062m 
  300.00000u  369.7172m  368.8845m  369.2929m  369.3088m 
  400.00000u  369.8560m  368.7458m  369.2903m  369.3114m 
  500.00000u  369.9947m  368.6070m  369.2876m  369.3141m 
  600.00000u  370.1335m  368.4682m  369.2850m  369.3167m 
  700.00000u  370.2723m  368.3294m  369.2823m  369.3194m 
  800.00000u  370.4111m  368.1906m  369.2797m  369.3220m 
  900.00000u  370.5498m  368.0519m  369.2771m  369.3247m 
    1.00000m  370.6886m  367.9131m  369.2744m  369.3273m 
    1.10000m  370.8274m  367.7743m  369.2718m  369.3300m 
    1.20000m  370.9662m  367.6355m  369.2691m  369.3326m 
    1.30000m  371.1050m  367.4968m  369.2665m  369.3352m 
    1.40000m  371.2437m  367.3580m  369.2638m  369.3379m 
    1.50000m  371.3825m  367.2192m  369.2612m  369.3405m 
    1.60000m  371.5213m  367.0804m  369.2585m  369.3432m 
    1.70000m  371.6601m  366.9417m  369.2559m  369.3458m 
    1.80000m  371.7988m  366.8029m  369.2533m  369.3485m 
    1.90000m  371.9376m  366.6641m  369.2506m  369.3511m 
    2.00000m  372.0764m  366.5253m  369.2480m  369.3538m 
    2.10000m  372.2152m  366.3866m  369.2453m  369.3564m 
    2.20000m  372.3539m  366.2478m  369.2427m  369.3591m 
    2.30000m  372.4927m  366.1090m  369.2400m  369.3617m 
    2.40000m  372.6315m  365.9702m  369.2374m  369.3643m 
    2.50000m  372.7703m  365.8315m  369.2347m  369.3670m 
    2.60000m  372.9091m  365.6927m  369.2321m  369.3696m 
    2.70000m  373.0478m  365.5539m  369.2295m  369.3723m 
    2.80000m  373.1866m  365.4151m  369.2268m  369.3749m 
    2.90000m  373.3254m  365.2764m  369.2242m  369.3776m 
    3.00000m  373.4642m  365.1376m  369.2215m  369.3802m 
    3.10000m  373.6029m  364.9988m  369.2189m  369.3829m 
    3.20000m  373.7417m  364.8600m  369.2162m  369.3855m 
    3.30000m  373.8805m  364.7213m  369.2136m  369.3882m 
    3.40000m  374.0193m  364.5825m  369.2109m  369.3908m 
    3.50000m  374.1580m  364.4437m  369.2083m  369.3935m 
    3.60000m  374.2968m  364.3049m  369.2057m  369.3961m 
    3.70000m  374.4356m  364.1662m  369.2030m  369.3987m 
    3.80000m  374.5744m  364.0274m  369.2004m  369.4014m 
    3.90000m  374.7132m  363.8886m  369.1977m  369.4040m 
    4.00000m  374.8519m  363.7498m  369.1951m  369.4067m 
    4.10000m  374.9907m  363.6111m  369.1924m  369.4093m 
    4.20000m  375.1295m  363.4723m  369.1898m  369.4120m 
    4.30000m  375.2683m  363.3335m  369.1871m  369.4146m 
    4.40000m  375.4070m  363.1947m  369.1845m  369.4173m 
    4.50000m  375.5458m  363.0560m  369.1819m  369.4199m 
    4.60000m  375.6846m  362.9172m  369.1792m  369.4226m 
    4.70000m  375.8234m  362.7784m  369.1766m  369.4252m 
    4.80000m  375.9622m  362.6396m  369.1739m  369.4279m 
    4.90000m  376.1009m  362.5009m  369.1713m  369.4305m 
    5.00000m  376.2397m  362.3621m  369.1686m  369.4331m 
    5.10000m  376.3785m  362.2233m  369.1660m  369.4358m 
    5.20000m  376.5173m  362.0845m  369.1634m  369.4384m 
    5.30000m  376.6560m  361.9458m  369.1607m  369.4411m 
    5.40000m  376.7948m  361.8070m  369.1581m  369.4437m 
    5.50000m  376.9336m  361.6682m  369.1554m  369.4464m 
    5.60000m  377.0724m  361.5294m  369.1528m  369.4490m 
    5.70000m  377.2111m  361.3907m  369.1501m  369.4517m 
    5.80000m  377.3499m  361.2519m  369.1475m  369.4543m 
    5.90000m  377.4887m  361.1131m  369.1448m  369.4570m 
    6.00000m  377.6275m  360.9743m  369.1422m  369.4596m 
    6.10000m  377.7663m  360.8356m  369.1396m  369.4623m 
    6.20000m  377.9050m  360.6968m  369.1369m  369.4649m 
    6.30000m  378.0438m  360.5580m  369.1343m  369.4676m 
    6.40000m  378.1826m  360.4192m  369.1316m  369.4702m 
    6.50000m  378.3214m  360.2805m  369.1290m  369.4729m 
    6.60000m  378.4601m  360.1417m  369.1263m  369.4755m 
    6.70000m  378.5989m  360.0029m  369.1237m  369.4781m 
    6.80000m  378.7377m  359.8641m  369.1210m  369.4808m 
    6.90000m  378.8765m  359.7254m  369.1184m  369.4834m 
    7.00000m  379.0153m  359.5866m  369.1158m  369.4861m 
    7.10000m  379.1540m  359.4478m  369.1131m  369.4887m 
    7.20000m  379.2928m  359.3090m  369.1105m  369.4914m 
    7.30000m  379.4316m  359.1703m  369.1078m  369.4940m 
    7.40000m  379.5704m  359.0315m  369.1052m  369.4967m 
    7.50000m  379.7091m  358.8927m  369.1025m  369.4993m 
    7.60000m  379.8479m  358.7540m  369.0999m  369.5020m 
    7.70000m  379.9867m  358.6152m  369.0973m  369.5046m 
    7.80000m  380.1255m  358.4764m  369.0946m  369.5073m 
    7.90000m  380.2643m  358.3376m  369.0920m  369.5099m 
    8.00000m  380.4030m  358.1989m  369.0893m  369.5126m 
    8.10000m  380.5418m  358.0601m  369.0867m  369.5152m 
    8.20000m  380.6806m  357.9213m  369.0840m  369.5179m 
    8.30000m  380.8194m  357.7825m  369.0814m  369.5205m 
    8.40000m  380.9581m  357.6438m  369.0787m  369.5232m 
    8.50000m  381.0969m  357.5050m  369.0761m  369.5258m 
    8.60000m  381.2357m  357.3662m  369.0735m  369.5285m 
    8.70000m  381.3745m  357.2274m  369.0708m  369.5311m 
    8.80000m  381.5132m  357.0887m  369.0682m  369.5338m 
    8.90000m  381.6520m  356.9499m  369.0655m  369.5364m 
    9.00000m  381.7908m  356.8111m  369.0629m  369.5390m 
    9.10000m  381.9296m  356.6724m  369.0602m  369.5417m 
    9.20000m  382.0684m  356.5336m  369.0576m  369.5443m 
    9.30000m  382.2071m  356.3948m  369.0549m  369.5470m 
    9.40000m  382.3459m  356.2560m  369.0523m  369.5496m 
    9.50000m  382.4847m  356.1173m  369.0497m  369.5523m 
    9.60000m  382.6235m  355.9785m  369.0470m  369.5549m 
    9.70000m  382.7622m  355.8397m  369.0444m  369.5576m 
    9.80000m  382.9010m  355.7009m  369.0417m  369.5602m 
    9.90000m  383.0398m  355.5622m  369.0391m  369.5629m 
   10.00000m  383.1786m  355.4234m  369.0364m  369.5655m 
   10.10000m  383.3174m  355.2846m  369.0338m  369.5682m 
   10.20000m  383.4561m  355.1459m  369.0312m  369.5708m 
   10.30000m  383.5949m  355.0071m  369.0285m  369.5735m 
   10.40000m  383.7337m  354.8683m  369.0259m  369.5761m 
   10.50000m  383.8725m  354.7295m  369.0232m  369.5788m 
   10.60000m  384.0112m  354.5908m  369.0206m  369.5814m 
   10.70000m  384.1500m  354.4520m  369.0179m  369.5841m 
   10.80000m  384.2888m  354.3132m  369.0153m  369.5867m 
   10.90000m  384.4276m  354.1745m  369.0126m  369.5894m 
   11.00000m  384.5663m  354.0357m  369.0100m  369.5920m 
   11.10000m  384.7051m  353.8969m  369.0074m  369.5947m 
   11.20000m  384.8439m  353.7581m  369.0047m  369.5973m 
   11.30000m  384.9827m  353.6194m  369.0021m  369.6000m 
   11.40000m  385.1215m  353.4806m  368.9994m  369.6026m 
   11.50000m  385.2602m  353.3418m  368.9968m  369.6053m 
   11.60000m  385.3990m  353.2031m  368.9941m  369.6079m 
   11.70000m  385.5378m  353.0643m  368.9915m  369.6106m 
   11.80000m  385.6766m  352.9255m  368.9888m  369.6132m 
   11.90000m  385.8153m  352.7867m  368.9862m  369.6159m 
   12.00000m  385.9541m  352.6480m  368.9836m  369.6185m 
   12.10000m  386.0929m  352.5092m  368.9809m  369.6212m 
   12.20000m  386.2317m  352.3704m  368.9783m  369.6238m 
   12.30000m  386.3705m  352.2317m  368.9756m  369.6265m 
   12.40000m  386.5092m  352.0929m  368.9730m  369.6291m 
   12.50000m  386.6480m  351.9541m  368.9703m  369.6318m 
   12.60000m  386.7868m  351.8153m  368.9677m  369.6344m 
   12.70000m  386.9256m  351.6766m  368.9650m  369.6371m 
   12.80000m  387.0643m  351.5378m  368.9624m  369.6397m 
   12.90000m  387.2031m  351.3990m  368.9598m  369.6424m 
   13.00000m  387.3419m  351.2603m  368.9571m  369.6450m 
   13.10000m  387.4807m  351.1215m  368.9545m  369.6477m 
   13.20000m  387.6194m  350.9827m  368.9518m  369.6503m 
   13.30000m  387.7582m  350.8440m  368.9492m  369.6530m 
   13.40000m  387.8970m  350.7052m  368.9465m  369.6556m 
   13.50000m  388.0358m  350.5664m  368.9439m  369.6583m 
   13.60000m  388.1746m  350.4276m  368.9412m  369.6610m 
   13.70000m  388.3133m  350.2889m  368.9386m  369.6636m 
   13.80000m  388.4521m  350.1501m  368.9360m  369.6663m 
   13.90000m  388.5909m  350.0113m  368.9333m  369.6689m 
   14.00000m  388.7297m  349.8726m  368.9307m  369.6716m 
   14.10000m  388.8684m  349.7338m  368.9280m  369.6742m 
   14.20000m  389.0072m  349.5950m  368.9254m  369.6769m 
   14.30000m  389.1460m  349.4563m  368.9227m  369.6795m 
   14.40000m  389.2848m  349.3175m  368.9201m  369.6822m 
   14.50000m  389.4235m  349.1787m  368.9174m  369.6848m 
   14.60000m  389.5623m  349.0400m  368.9148m  369.6875m 
   14.70000m  389.7011m  348.9012m  368.9122m  369.6901m 
   14.80000m  389.8399m  348.7624m  368.9095m  369.6928m 
   14.90000m  389.9786m  348.6236m  368.9069m  369.6954m 
   15.00000m  390.1174m  348.4849m  368.9042m  369.6981m 
   15.10000m  390.2562m  348.3461m  368.9016m  369.7007m 
   15.20000m  390.3950m  348.2073m  368.8989m  369.7034m 
   15.30000m  390.5338m  348.0686m  368.8963m  369.7060m 
   15.40000m  390.6725m  347.9298m  368.8936m  369.7087m 
   15.50000m  390.8113m  347.7910m  368.8910m  369.7113m 
   15.60000m  390.9501m  347.6523m  368.8883m  369.7140m 
   15.70000m  391.0889m  347.5135m  368.8857m  369.7167m 
   15.80000m  391.2276m  347.3747m  368.8831m  369.7193m 
   15.90000m  391.3664m  347.2360m  368.8804m  369.7220m 
   16.00000m  391.5052m  347.0972m  368.8778m  369.7246m 
   16.10000m  391.6440m  346.9584m  368.8751m  369.7273m 
   16.20000m  391.7827m  346.8197m  368.8725m  369.7299m 
   16.30000m  391.9215m  346.6809m  368.8698m  369.7326m 
   16.40000m  392.0603m  346.5421m  368.8672m  369.7352m 
   16.50000m  392.1991m  346.4034m  368.8645m  369.7379m 
   16.60000m  392.3378m  346.2646m  368.8619m  369.7405m 
   16.70000m  392.4766m  346.1258m  368.8592m  369.7432m 
   16.80000m  392.6154m  345.9871m  368.8566m  369.7458m 
   16.90000m  392.7542m  345.8483m  368.8540m  369.7485m 
   17.00000m  392.8929m  345.7095m  368.8513m  369.7512m 
   17.10000m  393.0317m  345.5708m  368.8487m  369.7538m 
   17.20000m  393.1705m  345.4320m  368.8460m  369.7565m 
   17.30000m  393.3093m  345.2932m  368.8434m  369.7591m 
   17.40000m  393.4480m  345.1545m  368.8407m  369.7618m 
   17.50000m  393.5868m  345.0157m  368.8381m  369.7644m 
   17.60000m  393.7256m  344.8769m  368.8354m  369.7671m 
   17.70000m  393.8644m  344.7382m  368.8328m  369.7697m 
   17.80000m  394.0031m  344.5994m  368.8301m  369.7724m 
   17.90000m  394.1419m  344.4606m  368.8275m  369.7750m 
   18.00000m  394.2807m  344.3219m  368.8249m  369.7777m 
   18.10000m  394.4195m  344.1831m  368.8222m  369.7804m 
   18.20000m  394.5582m  344.0443m  368.8196m  369.7830m 
   18.30000m  394.6970m  343.9056m  368.8169m  369.7857m 
   18.40000m  394.8358m  343.7668m  368.8143m  369.7883m 
   18.50000m  394.9746m  343.6280m  368.8116m  369.7910m 
   18.60000m  395.1133m  343.4893m  368.8090m  369.7936m 
   18.70000m  395.2521m  343.3505m  368.8063m  369.7963m 
   18.80000m  395.3909m  343.2117m  368.8037m  369.7989m 
   18.90000m  395.5297m  343.0730m  368.8010m  369.8016m 
   19.00000m  395.6684m  342.9342m  368.7984m  369.8043m 
   19.10000m  395.8072m  342.7954m  368.7957m  369.8069m 
   19.20000m  395.9460m  342.6567m  368.7931m  369.8096m 
   19.30000m  396.0848m  342.5179m  368.7905m  369.8122m 
   19.40000m  396.2235m  342.3791m  368.7878m  369.8149m 
   19.50000m  396.3623m  342.2404m  368.7852m  369.8175m 
   19.60000m  396.5011m  342.1016m  368.7825m  369.8202m 
   19.70000m  396.6399m  341.9628m  368.7799m  369.8228m 
   19.80000m  396.7786m  341.8241m  368.7772m  369.8255m 
   19.90000m  396.9174m  341.6853m  368.7746m  369.8282m 
   20.00000m  397.0562m  341.5465m  368.7719m  369.8308m 
   20.10000m  397.1950m  341.4078m  368.7693m  369.8335m 
   20.20000m  397.3337m  341.2690m  368.7666m  369.8361m 
   20.30000m  397.4725m  341.1303m  368.7640m  369.8388m 
   20.40000m  397.6113m  340.9915m  368.7613m  369.8414m 
   20.50000m  397.7501m  340.8527m  368.7587m  369.8441m 
   20.60000m  397.8888m  340.7140m  368.7560m  369.8468m 
   20.70000m  398.0276m  340.5752m  368.7534m  369.8494m 
   20.80000m  398.1664m  340.4364m  368.7507m  369.8521m 
   20.90000m  398.3052m  340.2977m  368.7481m  369.8547m 
   21.00000m  398.4439m  340.1589m  368.7455m  369.8574m 
   21.10000m  398.5827m  340.0201m  368.7428m  369.8600m 
   21.20000m  398.7215m  339.8814m  368.7402m  369.8627m 
   21.30000m  398.8603m  339.7426m  368.7375m  369.8654m 
   21.40000m  398.9990m  339.6039m  368.7349m  369.8680m 
   21.50000m  399.1378m  339.4651m  368.7322m  369.8707m 
   21.60000m  399.2766m  339.3263m  368.7296m  369.8733m 
   21.70000m  399.4154m  339.1876m  368.7269m  369.8760m 
   21.80000m  399.5541m  339.0488m  368.7243m  369.8787m 
   21.90000m  399.6929m  338.9100m  368.7216m  369.8813m 
   22.00000m  399.8317m  338.7713m  368.7190m  369.8840m 
   22.10000m  399.9704m  338.6325m  368.7163m  369.8866m 
   22.20000m  400.1092m  338.4938m  368.7137m  369.8893m 
   22.30000m  400.2480m  338.3550m  368.7110m  369.8920m 
   22.40000m  400.3868m  338.2162m  368.7084m  369.8946m 
   22.50000m  400.5255m  338.0775m  368.7057m  369.8973m 
   22.60000m  400.6643m  337.9387m  368.7031m  369.8999m 
   22.70000m  400.8031m  337.7999m  368.7004m  369.9026m 
   22.80000m  400.9419m  337.6612m  368.6978m  369.9052m 
   22.90000m  401.0806m  337.5224m  368.6951m  369.9079m 
   23.00000m  401.2194m  337.3837m  368.6925m  369.9106m 
   23.10000m  401.3582m  337.2449m  368.6898m  369.9132m 
   23.20000m  401.4970m  337.1061m  368.6872m  369.9159m 
   23.30000m  401.6357m  336.9674m  368.6845m  369.9185m 
   23.40000m  401.7745m  336.8286m  368.6819m  369.9212m 
   23.50000m  401.9133m  336.6898m  368.6792m  369.9239m 
   23.60000m  402.0520m  336.5511m  368.6766m  369.9265m 
   23.70000m  402.1908m  336.4123m  368.6740m  369.9292m 
   23.80000m  402.3296m  336.2736m  368.6713m  369.9318m 
   23.90000m  402.4684m  336.1348m  368.6687m  369.9345m 
   24.00000m  402.6071m  335.9960m  368.6660m  369.9372m 
   24.10000m  402.7459m  335.8573m  368.6634m  369.9398m 
   24.20000m  402.8847m  335.7185m  368.6607m  369.9425m 
   24.30000m  403.0234m  335.5798m  368.6581m  369.9452m 
   24.40000m  403.1622m  335.4410m  368.6554m  369.9478m 
   24.50000m  403.3010m  335.3022m  368.6528m  369.9505m 
   24.60000m  403.4398m  335.1635m  368.6501m  369.9531m 
   24.70000m  403.5785m  335.0247m  368.6475m  369.9558m 
   24.80000m  403.7173m  334.8860m  368.6448m  369.9585m 
   24.90000m  403.8561m  334.7472m  368.6422m  369.9611m 
   25.00000m  403.9948m  334.6084m  368.6395m  369.9638m 
   25.10000m  404.1336m  334.4697m  368.6369m  369.9664m 
   25.20000m  404.2724m  334.3309m  368.6342m  369.9691m 
   25.30000m  404.4112m  334.1922m  368.6316m  369.9718m 
   25.40000m  404.5499m  334.0534m  368.6289m  369.9744m 
   25.50000m  404.6887m  333.9147m  368.6263m  369.9771m 
   25.60000m  404.8275m  333.7759m  368.6236m  369.9798m 
   25.70000m  404.9662m  333.6371m  368.6210m  369.9824m 
   25.80000m  405.1050m  333.4984m  368.6183m  369.9851m 
   25.90000m  405.2438m  333.3596m  368.6157m  369.9877m 
   26.00000m  405.3826m  333.2209m  368.6130m  369.9904m 
   26.10000m  405.5213m  333.0821m  368.6104m  369.9931m 
   26.20000m  405.6601m  332.9433m  368.6077m  369.9957m 
   26.30000m  405.7989m  332.8046m  368.6051m  369.9984m 
   26.40000m  405.9376m  332.6658m  368.6024m  370.0011m 
   26.50000m  406.0764m  332.5271m  368.5998m  370.0037m 
   26.60000m  406.2152m  332.3883m  368.5971m  370.0064m 
   26.70000m  406.3540m  332.2496m  368.5944m  370.0091m 
   26.80000m  406.4927m  332.1108m  368.5918m  370.0117m 
   26.90000m  406.6315m  331.9720m  368.5891m  370.0144m 
   27.00000m  406.7703m  331.8333m  368.5865m  370.0170m 
   27.10000m  406.9090m  331.6945m  368.5838m  370.0197m 
   27.20000m  407.0478m  331.5558m  368.5812m  370.0224m 
   27.30000m  407.1866m  331.4170m  368.5785m  370.0250m 
   27.40000m  407.3253m  331.2783m  368.5759m  370.0277m 
   27.50000m  407.4641m  331.1395m  368.5732m  370.0304m 
   27.60000m  407.6029m  331.0007m  368.5706m  370.0330m 
   27.70000m  407.7416m  330.8620m  368.5679m  370.0357m 
   27.80000m  407.8804m  330.7232m  368.5653m  370.0384m 
   27.90000m  408.0192m  330.5845m  368.5626m  370.0410m 
   28.00000m  408.1580m  330.4457m  368.5600m  370.0437m 
   28.10000m  408.2967m  330.3070m  368.5573m  370.0464m 
   28.20000m  408.4355m  330.1682m  368.5547m  370.0490m 
   28.30000m  408.5743m  330.0294m  368.5520m  370.0517m 
   28.40000m  408.7130m  329.8907m  368.5494m  370.0544m 
   28.50000m  408.8518m  329.7519m  368.5467m  370.0570m 
   28.60000m  408.9906m  329.6132m  368.5441m  370.0597m 
   28.70000m  409.1293m  329.4744m  368.5414m  370.0624m 
   28.80000m  409.2681m  329.3357m  368.5388m  370.0650m 
   28.90000m  409.4069m  329.1969m  368.5361m  370.0677m 
   29.00000m  409.5456m  329.0582m  368.5335m  370.0704m 
   29.10000m  409.6844m  328.9194m  368.5308m  370.0730m 
   29.20000m  409.8232m  328.7807m  368.5281m  370.0757m 
   29.30000m  409.9619m  328.6419m  368.5255m  370.0784m 
   29.40000m  410.1007m  328.5031m  368.5228m  370.0810m 
   29.50000m  410.2395m  328.3644m  368.5202m  370.0837m 
   29.60000m  410.3783m  328.2256m  368.5175m  370.0864m 
   29.70000m  410.5170m  328.0869m  368.5149m  370.0890m 
   29.80000m  410.6558m  327.9481m  368.5122m  370.0917m 
   29.90000m  410.7946m  327.8094m  368.5096m  370.0944m 
   30.00000m  410.9333m  327.6706m  368.5069m  370.0970m 
   30.10000m  411.0721m  327.5319m  368.5043m  370.0997m 
   30.20000m  411.2109m  327.3931m  368.5016m  370.1024m 
   30.30000m  411.3496m  327.2544m  368.4990m  370.1050m 
   30.40000m  411.4884m  327.1156m  368.4963m  370.1077m 
   30.50000m  411.6272m  326.9769m  368.4936m  370.1104m 
   30.60000m  411.7659m  326.8381m  368.4910m  370.1130m 
   30.70000m  411.9047m  326.6994m  368.4883m  370.1157m 
   30.80000m  412.0435m  326.5606m  368.4857m  370.1184m 
   30.90000m  412.1822m  326.4218m  368.4830m  370.1210m 
   31.00000m  412.3210m  326.2831m  368.4804m  370.1237m 
   31.10000m  412.4598m  326.1443m  368.4777m  370.1264m 
   31.20000m  412.5985m  326.0056m  368.4751m  370.1291m 
   31.30000m  412.7373m  325.8668m  368.4724m  370.1317m 
   31.40000m  412.8761m  325.7281m  368.4698m  370.1344m 
   31.50000m  413.0148m  325.5893m  368.4671m  370.1371m 
   31.60000m  413.1536m  325.4506m  368.4644m  370.1397m 
   31.70000m  413.2924m  325.3118m  368.4618m  370.1424m 
   31.80000m  413.4311m  325.1731m  368.4591m  370.1451m 
   31.90000m  413.5699m  325.0343m  368.4565m  370.1477m 
   32.00000m  413.7087m  324.8956m  368.4538m  370.1504m 
   32.10000m  413.8474m  324.7568m  368.4512m  370.1531m 
   32.20000m  413.9862m  324.6181m  368.4485m  370.1558m 
   32.30000m  414.1249m  324.4793m  368.4458m  370.1584m 
   32.40000m  414.2637m  324.3406m  368.4432m  370.1611m 
   32.50000m  414.4025m  324.2018m  368.4405m  370.1638m 
   32.60000m  414.5412m  324.0631m  368.4379m  370.1664m 
   32.70000m  414.6800m  323.9243m  368.4352m  370.1691m 
   32.80000m  414.8188m  323.7856m  368.4326m  370.1718m 
   32.90000m  414.9575m  323.6468m  368.4299m  370.1745m 
   33.00000m  415.0963m  323.5081m  368.4273m  370.1771m 
   33.10000m  415.2351m  323.3693m  368.4246m  370.1798m 
   33.20000m  415.3738m  323.2306m  368.4219m  370.1825m 
   33.30000m  415.5126m  323.0918m  368.4193m  370.1851m 
   33.40000m  415.6514m  322.9531m  368.4166m  370.1878m 
   33.50000m  415.7901m  322.8143m  368.4140m  370.1905m 
   33.60000m  415.9289m  322.6756m  368.4113m  370.1932m 
   33.70000m  416.0676m  322.5368m  368.4087m  370.1958m 
   33.80000m  416.2064m  322.3981m  368.4060m  370.1985m 
   33.90000m  416.3452m  322.2593m  368.4033m  370.2012m 
   34.00000m  416.4839m  322.1206m  368.4007m  370.2039m 
   34.10000m  416.6227m  321.9818m  368.3980m  370.2065m 
   34.20000m  416.7615m  321.8431m  368.3954m  370.2092m 
   34.30000m  416.9002m  321.7043m  368.3927m  370.2119m 
   34.40000m  417.0390m  321.5656m  368.3900m  370.2145m 
   34.50000m  417.1778m  321.4269m  368.3874m  370.2172m 
   34.60000m  417.3165m  321.2881m  368.3847m  370.2199m 
   34.70000m  417.4553m  321.1494m  368.3821m  370.2226m 
   34.80000m  417.5940m  321.0106m  368.3794m  370.2252m 
   34.90000m  417.7328m  320.8719m  368.3767m  370.2279m 
   35.00000m  417.8716m  320.7331m  368.3741m  370.2306m 
   35.10000m  418.0103m  320.5944m  368.3714m  370.2333m 
   35.20000m  418.1491m  320.4556m  368.3688m  370.2359m 
   35.30000m  418.2878m  320.3169m  368.3661m  370.2386m 
   35.40000m  418.4266m  320.1781m  368.3635m  370.2413m 
   35.50000m  418.5654m  320.0394m  368.3608m  370.2440m 
   35.60000m  418.7041m  319.9006m  368.3581m  370.2466m 
   35.70000m  418.8429m  319.7619m  368.3555m  370.2493m 
   35.80000m  418.9817m  319.6232m  368.3528m  370.2520m 
   35.90000m  419.1204m  319.4844m  368.3502m  370.2547m 
   36.00000m  419.2592m  319.3457m  368.3475m  370.2573m 
   36.10000m  419.3979m  319.2069m  368.3448m  370.2600m 
   36.20000m  419.5367m  319.0682m  368.3422m  370.2627m 
   36.30000m  419.6755m  318.9294m  368.3395m  370.2654m 
   36.40000m  419.8142m  318.7907m  368.3368m  370.2681m 
   36.50000m  419.9530m  318.6519m  368.3342m  370.2707m 
   36.60000m  420.0917m  318.5132m  368.3315m  370.2734m 
   36.70000m  420.2305m  318.3744m  368.3289m  370.2761m 
   36.80000m  420.3693m  318.2357m  368.3262m  370.2788m 
   36.90000m  420.5080m  318.0970m  368.3235m  370.2814m 
   37.00000m  420.6468m  317.9582m  368.3209m  370.2841m 
   37.10000m  420.7855m  317.8195m  368.3182m  370.2868m 
   37.20000m  420.9243m  317.6807m  368.3156m  370.2895m 
   37.30000m  421.0631m  317.5420m  368.3129m  370.2922m 
   37.40000m  421.2018m  317.4032m  368.3102m  370.2948m 
   37.50000m  421.3406m  317.2645m  368.3076m  370.2975m 
   37.60000m  421.4793m  317.1258m  368.3049m  370.3002m 
   37.70000m  421.6181m  316.9870m  368.3022m  370.3029m 
   37.80000m  421.7569m  316.8483m  368.2996m  370.3055m 
   37.90000m  421.8956m  316.7095m  368.2969m  370.3082m 
   38.00000m  422.0344m  316.5708m  368.2943m  370.3109m 
   38.10000m  422.1731m  316.4320m  368.2916m  370.3136m 
   38.20000m  422.3119m  316.2933m  368.2889m  370.3163m 
   38.30000m  422.4506m  316.1546m  368.2863m  370.3189m 
   38.40000m  422.5894m  316.0158m  368.2836m  370.3216m 
   38.50000m  422.7282m  315.8771m  368.2809m  370.3243m 
   38.60000m  422.8669m  315.7383m  368.2783m  370.3270m 
   38.70000m  423.0057m  315.5996m  368.2756m  370.3297m 
   38.80000m  423.1444m  315.4609m  368.2729m  370.3323m 
   38.90000m  423.2832m  315.3221m  368.2703m  370.3350m 
   39.00000m  423.4219m  315.1834m  368.2676m  370.3377m 
   39.10000m  423.5607m  315.0446m  368.2650m  370.3404m 
   39.20000m  423.6995m  314.9059m  368.2623m  370.3431m 
   39.30000m  423.8382m  314.7672m  368.2596m  370.3457m 
   39.40000m  423.9770m  314.6284m  368.2570m  370.3484m 
   39.50000m  424.1157m  314.4897m  368.2543m  370.3511m 
   39.60000m  424.2545m  314.3509m  368.2516m  370.3538m 
   39.70000m  424.3932m  314.2122m  368.2490m  370.3565m 
   39.80000m  424.5320m  314.0735m  368.2463m  370.3592m 
   39.90000m  424.6708m  313.9347m  368.2436m  370.3618m 
   40.00000m  424.8095m  313.7960m  368.2410m  370.3645m 
   40.10000m  424.9483m  313.6572m  368.2383m  370.3672m 
   40.20000m  425.0870m  313.5185m  368.2356m  370.3699m 
   40.30000m  425.2258m  313.3798m  368.2330m  370.3726m 
   40.40000m  425.3645m  313.2410m  368.2303m  370.3753m 
   40.50000m  425.5033m  313.1023m  368.2276m  370.3779m 
   40.60000m  425.6420m  312.9635m  368.2250m  370.3806m 
   40.70000m  425.7808m  312.8248m  368.2223m  370.3833m 
   40.80000m  425.9195m  312.6861m  368.2196m  370.3860m 
   40.90000m  426.0583m  312.5473m  368.2170m  370.3887m 
   41.00000m  426.1971m  312.4086m  368.2143m  370.3914m 
   41.10000m  426.3358m  312.2699m  368.2116m  370.3940m 
   41.20000m  426.4746m  312.1311m  368.2090m  370.3967m 
   41.30000m  426.6133m  311.9924m  368.2063m  370.3994m 
   41.40000m  426.7521m  311.8537m  368.2036m  370.4021m 
   41.50000m  426.8908m  311.7149m  368.2010m  370.4048m 
   41.60000m  427.0296m  311.5762m  368.1983m  370.4075m 
   41.70000m  427.1683m  311.4374m  368.1956m  370.4101m 
   41.80000m  427.3071m  311.2987m  368.1930m  370.4128m 
   41.90000m  427.4458m  311.1600m  368.1903m  370.4155m 
   42.00000m  427.5846m  311.0212m  368.1876m  370.4182m 
   42.10000m  427.7233m  310.8825m  368.1849m  370.4209m 
   42.20000m  427.8621m  310.7438m  368.1823m  370.4236m 
   42.30000m  428.0008m  310.6050m  368.1796m  370.4263m 
   42.40000m  428.1396m  310.4663m  368.1769m  370.4289m 
   42.50000m  428.2783m  310.3276m  368.1743m  370.4316m 
   42.60000m  428.4171m  310.1888m  368.1716m  370.4343m 
   42.70000m  428.5558m  310.0501m  368.1689m  370.4370m 
   42.80000m  428.6946m  309.9114m  368.1663m  370.4397m 
   42.90000m  428.8334m  309.7726m  368.1636m  370.4424m 
   43.00000m  428.9721m  309.6339m  368.1609m  370.4451m 
   43.10000m  429.1109m  309.4952m  368.1582m  370.4478m 
   43.20000m  429.2496m  309.3564m  368.1556m  370.4504m 
   43.30000m  429.3884m  309.2177m  368.1529m  370.4531m 
   43.40000m  429.5271m  309.0790m  368.1502m  370.4558m 
   43.50000m  429.6659m  308.9402m  368.1476m  370.4585m 
   43.60000m  429.8046m  308.8015m  368.1449m  370.4612m 
   43.70000m  429.9434m  308.6628m  368.1422m  370.4639m 
   43.80000m  430.0821m  308.5240m  368.1395m  370.4666m 
   43.90000m  430.2209m  308.3853m  368.1369m  370.4693m 
   44.00000m  430.3596m  308.2466m  368.1342m  370.4720m 
   44.10000m  430.4984m  308.1078m  368.1315m  370.4746m 
   44.20000m  430.6371m  307.9691m  368.1289m  370.4773m 
   44.30000m  430.7758m  307.8304m  368.1262m  370.4800m 
   44.40000m  430.9146m  307.6916m  368.1235m  370.4827m 
   44.50000m  431.0533m  307.5529m  368.1208m  370.4854m 
   44.60000m  431.1921m  307.4142m  368.1182m  370.4881m 
   44.70000m  431.3308m  307.2754m  368.1155m  370.4908m 
   44.80000m  431.4696m  307.1367m  368.1128m  370.4935m 
   44.90000m  431.6083m  306.9980m  368.1101m  370.4962m 
   45.00000m  431.7471m  306.8592m  368.1075m  370.4989m 
   45.10000m  431.8858m  306.7205m  368.1048m  370.5016m 
   45.20000m  432.0246m  306.5818m  368.1021m  370.5042m 
   45.30000m  432.1633m  306.4431m  368.0995m  370.5069m 
   45.40000m  432.3021m  306.3043m  368.0968m  370.5096m 
   45.50000m  432.4408m  306.1656m  368.0941m  370.5123m 
   45.60000m  432.5796m  306.0269m  368.0914m  370.5150m 
   45.70000m  432.7183m  305.8881m  368.0888m  370.5177m 
   45.80000m  432.8571m  305.7494m  368.0861m  370.5204m 
   45.90000m  432.9958m  305.6107m  368.0834m  370.5231m 
   46.00000m  433.1345m  305.4720m  368.0807m  370.5258m 
   46.10000m  433.2733m  305.3332m  368.0780m  370.5285m 
   46.20000m  433.4120m  305.1945m  368.0754m  370.5312m 
   46.30000m  433.5508m  305.0558m  368.0727m  370.5339m 
   46.40000m  433.6895m  304.9170m  368.0700m  370.5366m 
   46.50000m  433.8283m  304.7783m  368.0673m  370.5392m 
   46.60000m  433.9670m  304.6396m  368.0647m  370.5419m 
   46.70000m  434.1058m  304.5009m  368.0620m  370.5446m 
   46.80000m  434.2445m  304.3621m  368.0593m  370.5473m 
   46.90000m  434.3833m  304.2234m  368.0566m  370.5500m 
   47.00000m  434.5220m  304.0847m  368.0540m  370.5527m 
   47.10000m  434.6607m  303.9460m  368.0513m  370.5554m 
   47.20000m  434.7995m  303.8072m  368.0486m  370.5581m 
   47.30000m  434.9382m  303.6685m  368.0459m  370.5608m 
   47.40000m  435.0770m  303.5298m  368.0432m  370.5635m 
   47.50000m  435.2157m  303.3911m  368.0406m  370.5662m 
   47.60000m  435.3545m  303.2523m  368.0379m  370.5689m 
   47.70000m  435.4932m  303.1136m  368.0352m  370.5716m 
   47.80000m  435.6319m  302.9749m  368.0325m  370.5743m 
   47.90000m  435.7707m  302.8362m  368.0299m  370.5770m 
   48.00000m  435.9094m  302.6974m  368.0272m  370.5797m 
   48.10000m  436.0482m  302.5587m  368.0245m  370.5824m 
   48.20000m  436.1869m  302.4200m  368.0218m  370.5851m 
   48.30000m  436.3256m  302.2813m  368.0191m  370.5878m 
   48.40000m  436.4644m  302.1425m  368.0165m  370.5905m 
   48.50000m  436.6031m  302.0038m  368.0138m  370.5932m 
   48.60000m  436.7419m  301.8651m  368.0111m  370.5959m 
   48.70000m  436.8806m  301.7264m  368.0084m  370.5986m 
   48.80000m  437.0194m  301.5876m  368.0057m  370.6013m 
   48.90000m  437.1581m  301.4489m  368.0030m  370.6040m 
   49.00000m  437.2968m  301.3102m  368.0004m  370.6067m 
   49.10000m  437.4356m  301.1715m  367.9977m  370.6094m 
   49.20000m  437.5743m  301.0328m  367.9950m  370.6121m 
   49.30000m  437.7130m  300.8940m  367.9923m  370.6148m 
   49.40000m  437.8518m  300.7553m  367.9896m  370.6175m 
   49.50000m  437.9905m  300.6166m  367.9870m  370.6202m 
   49.60000m  438.1293m  300.4779m  367.9843m  370.6229m 
   49.70000m  438.2680m  300.3391m  367.9816m  370.6256m 
   49.80000m  438.4067m  300.2004m  367.9789m  370.6283m 
   49.90000m  438.5455m  300.0617m  367.9762m  370.6310m 
   50.00000m  438.6842m  299.9230m  367.9735m  370.6337m 
   50.10000m  438.8230m  299.7843m  367.9709m  370.6364m 
   50.20000m  438.9617m  299.6455m  367.9682m  370.6391m 
   50.30000m  439.1004m  299.5068m  367.9655m  370.6418m 
   50.40000m  439.2392m  299.3681m  367.9628m  370.6445m 
   50.50000m  439.3779m  299.2294m  367.9601m  370.6472m 
   50.60000m  439.5166m  299.0907m  367.9574m  370.6499m 
   50.70000m  439.6554m  298.9519m  367.9547m  370.6526m 
   50.80000m  439.7941m  298.8132m  367.9521m  370.6553m 
   50.90000m  439.9328m  298.6745m  367.9494m  370.6580m 
   51.00000m  440.0716m  298.5358m  367.9467m  370.6607m 
   51.10000m  440.2103m  298.3971m  367.9440m  370.6634m 
   51.20000m  440.3491m  298.2584m  367.9413m  370.6661m 
   51.30000m  440.4878m  298.1196m  367.9386m  370.6688m 
   51.40000m  440.6265m  297.9809m  367.9359m  370.6715m 
   51.50000m  440.7653m  297.8422m  367.9333m  370.6742m 
   51.60000m  440.9040m  297.7035m  367.9306m  370.6769m 
   51.70000m  441.0427m  297.5648m  367.9279m  370.6796m 
   51.80000m  441.1815m  297.4260m  367.9252m  370.6823m 
   51.90000m  441.3202m  297.2873m  367.9225m  370.6850m 
   52.00000m  441.4589m  297.1486m  367.9198m  370.6877m 
   52.10000m  441.5977m  297.0099m  367.9171m  370.6904m 
   52.20000m  441.7364m  296.8712m  367.9144m  370.6931m 
   52.30000m  441.8751m  296.7325m  367.9118m  370.6958m 
   52.40000m  442.0139m  296.5937m  367.9091m  370.6985m 
   52.50000m  442.1526m  296.4550m  367.9064m  370.7012m 
   52.60000m  442.2913m  296.3163m  367.9037m  370.7040m 
   52.70000m  442.4301m  296.1776m  367.9010m  370.7067m 
   52.80000m  442.5688m  296.0389m  367.8983m  370.7094m 
   52.90000m  442.7075m  295.9002m  367.8956m  370.7121m 
   53.00000m  442.8463m  295.7615m  367.8929m  370.7148m 
   53.10000m  442.9850m  295.6227m  367.8902m  370.7175m 
   53.20000m  443.1237m  295.4840m  367.8876m  370.7202m 
   53.30000m  443.2624m  295.3453m  367.8849m  370.7229m 
   53.40000m  443.4012m  295.2066m  367.8822m  370.7256m 
   53.50000m  443.5399m  295.0679m  367.8795m  370.7283m 
   53.60000m  443.6786m  294.9292m  367.8768m  370.7310m 
   53.70000m  443.8174m  294.7905m  367.8741m  370.7337m 
   53.80000m  443.9561m  294.6518m  367.8714m  370.7364m 
   53.90000m  444.0948m  294.5130m  367.8687m  370.7392m 
   54.00000m  444.2335m  294.3743m  367.8660m  370.7419m 
   54.10000m  444.3723m  294.2356m  367.8633m  370.7446m 
   54.20000m  444.5110m  294.0969m  367.8606m  370.7473m 
   54.30000m  444.6497m  293.9582m  367.8579m  370.7500m 
   54.40000m  444.7885m  293.8195m  367.8552m  370.7527m 
   54.50000m  444.9272m  293.6808m  367.8526m  370.7554m 
   54.60000m  445.0659m  293.5421m  367.8499m  370.7581m 
   54.70000m  445.2046m  293.4034m  367.8472m  370.7608m 
   54.80000m  445.3434m  293.2646m  367.8445m  370.7635m 
   54.90000m  445.4821m  293.1259m  367.8418m  370.7663m 
   55.00000m  445.6208m  292.9872m  367.8391m  370.7690m 
   55.10000m  445.7595m  292.8485m  367.8364m  370.7717m 
   55.20000m  445.8983m  292.7098m  367.8337m  370.7744m 
   55.30000m  446.0370m  292.5711m  367.8310m  370.7771m 
   55.40000m  446.1757m  292.4324m  367.8283m  370.7798m 
   55.50000m  446.3145m  292.2937m  367.8256m  370.7825m 
   55.60000m  446.4532m  292.1550m  367.8229m  370.7852m 
   55.70000m  446.5919m  292.0163m  367.8202m  370.7880m 
   55.80000m  446.7306m  291.8776m  367.8175m  370.7907m 
   55.90000m  446.8693m  291.7388m  367.8148m  370.7934m 
   56.00000m  447.0081m  291.6001m  367.8121m  370.7961m 
   56.10000m  447.1468m  291.4614m  367.8094m  370.7988m 
   56.20000m  447.2855m  291.3227m  367.8067m  370.8015m 
   56.30000m  447.4242m  291.1840m  367.8040m  370.8042m 
   56.40000m  447.5630m  291.0453m  367.8013m  370.8070m 
   56.50000m  447.7017m  290.9066m  367.7986m  370.8097m 
   56.60000m  447.8404m  290.7679m  367.7959m  370.8124m 
   56.70000m  447.9791m  290.6292m  367.7932m  370.8151m 
   56.80000m  448.1179m  290.4905m  367.7905m  370.8178m 
   56.90000m  448.2566m  290.3518m  367.7878m  370.8205m 
   57.00000m  448.3953m  290.2131m  367.7851m  370.8232m 
   57.10000m  448.5340m  290.0744m  367.7824m  370.8260m 
   57.20000m  448.6727m  289.9357m  367.7797m  370.8287m 
   57.30000m  448.8115m  289.7970m  367.7770m  370.8314m 
   57.40000m  448.9502m  289.6583m  367.7743m  370.8341m 
   57.50000m  449.0889m  289.5196m  367.7716m  370.8368m 
   57.60000m  449.2276m  289.3809m  367.7689m  370.8396m 
   57.70000m  449.3663m  289.2421m  367.7662m  370.8423m 
   57.80000m  449.5051m  289.1034m  367.7635m  370.8450m 
   57.90000m  449.6438m  288.9647m  367.7608m  370.8477m 
   58.00000m  449.7825m  288.8260m  367.7581m  370.8504m 
   58.10000m  449.9212m  288.6873m  367.7554m  370.8531m 
   58.20000m  450.0599m  288.5486m  367.7527m  370.8559m 
   58.30000m  450.1986m  288.4099m  367.7500m  370.8586m 
   58.40000m  450.3374m  288.2712m  367.7473m  370.8613m 
   58.50000m  450.4761m  288.1325m  367.7446m  370.8640m 
   58.60000m  450.6148m  287.9938m  367.7419m  370.8667m 
   58.70000m  450.7535m  287.8551m  367.7392m  370.8695m 
   58.80000m  450.8922m  287.7164m  367.7365m  370.8722m 
   58.90000m  451.0309m  287.5777m  367.7338m  370.8749m 
   59.00000m  451.1697m  287.4390m  367.7311m  370.8776m 
   59.10000m  451.3084m  287.3003m  367.7284m  370.8803m 
   59.20000m  451.4471m  287.1616m  367.7257m  370.8831m 
   59.30000m  451.5858m  287.0229m  367.7229m  370.8858m 
   59.40000m  451.7245m  286.8842m  367.7202m  370.8885m 
   59.50000m  451.8632m  286.7455m  367.7175m  370.8912m 
   59.60000m  452.0020m  286.6068m  367.7148m  370.8940m 
   59.70000m  452.1407m  286.4681m  367.7121m  370.8967m 
   59.80000m  452.2794m  286.3294m  367.7094m  370.8994m 
   59.90000m  452.4181m  286.1907m  367.7067m  370.9021m 
   60.00000m  452.5568m  286.0520m  367.7040m  370.9048m 
   60.10000m  452.6955m  285.9133m  367.7013m  370.9076m 
   60.20000m  452.8342m  285.7746m  367.6986m  370.9103m 
   60.30000m  452.9729m  285.6359m  367.6959m  370.9130m 
   60.40000m  453.1117m  285.4972m  367.6932m  370.9157m 
   60.50000m  453.2504m  285.3585m  367.6904m  370.9185m 
   60.60000m  453.3891m  285.2199m  367.6877m  370.9212m 
   60.70000m  453.5278m  285.0812m  367.6850m  370.9239m 
   60.80000m  453.6665m  284.9425m  367.6823m  370.9266m 
   60.90000m  453.8052m  284.8038m  367.6796m  370.9294m 
   61.00000m  453.9439m  284.6651m  367.6769m  370.9321m 
   61.10000m  454.0826m  284.5264m  367.6742m  370.9348m 
   61.20000m  454.2213m  284.3877m  367.6715m  370.9375m 
   61.30000m  454.3600m  284.2490m  367.6688m  370.9403m 
   61.40000m  454.4988m  284.1103m  367.6660m  370.9430m 
   61.50000m  454.6375m  283.9716m  367.6633m  370.9457m 
   61.60000m  454.7762m  283.8329m  367.6606m  370.9485m 
   61.70000m  454.9149m  283.6942m  367.6579m  370.9512m 
   61.80000m  455.0536m  283.5555m  367.6552m  370.9539m 
   61.90000m  455.1923m  283.4168m  367.6525m  370.9566m 
   62.00000m  455.3310m  283.2781m  367.6498m  370.9594m 
   62.10000m  455.4697m  283.1394m  367.6470m  370.9621m 
   62.20000m  455.6084m  283.0007m  367.6443m  370.9648m 
   62.30000m  455.7471m  282.8621m  367.6416m  370.9676m 
   62.40000m  455.8858m  282.7234m  367.6389m  370.9703m 
   62.50000m  456.0245m  282.5847m  367.6362m  370.9730m 
   62.60000m  456.1632m  282.4460m  367.6335m  370.9757m 
   62.70000m  456.3019m  282.3073m  367.6307m  370.9785m 
   62.80000m  456.4406m  282.1686m  367.6280m  370.9812m 
   62.90000m  456.5793m  282.0299m  367.6253m  370.9839m 
   63.00000m  456.7180m  281.8912m  367.6226m  370.9867m 
   63.10000m  456.8568m  281.7525m  367.6199m  370.9894m 
   63.20000m  456.9955m  281.6138m  367.6172m  370.9921m 
   63.30000m  457.1342m  281.4751m  367.6144m  370.9949m 
   63.40000m  457.2729m  281.3365m  367.6117m  370.9976m 
   63.50000m  457.4116m  281.1978m  367.6090m  371.0003m 
   63.60000m  457.5503m  281.0591m  367.6063m  371.0031m 
   63.70000m  457.6890m  280.9204m  367.6036m  371.0058m 
   63.80000m  457.8277m  280.7817m  367.6008m  371.0085m 
   63.90000m  457.9664m  280.6430m  367.5981m  371.0113m 
   64.00000m  458.1051m  280.5043m  367.5954m  371.0140m 
   64.10000m  458.2438m  280.3656m  367.5927m  371.0167m 
   64.20000m  458.3825m  280.2270m  367.5900m  371.0195m 
   64.30000m  458.5212m  280.0883m  367.5872m  371.0222m 
   64.40000m  458.6599m  279.9496m  367.5845m  371.0249m 
   64.50000m  458.7986m  279.8109m  367.5818m  371.0277m 
   64.60000m  458.9373m  279.6722m  367.5791m  371.0304m 
   64.70000m  459.0760m  279.5335m  367.5763m  371.0331m 
   64.80000m  459.2147m  279.3948m  367.5736m  371.0359m 
   64.90000m  459.3534m  279.2562m  367.5709m  371.0386m 
   65.00000m  459.4921m  279.1175m  367.5682m  371.0414m 
   65.10000m  459.6307m  278.9788m  367.5654m  371.0441m 
   65.20000m  459.7694m  278.8401m  367.5627m  371.0468m 
   65.30000m  459.9081m  278.7014m  367.5600m  371.0496m 
   65.40000m  460.0468m  278.5627m  367.5573m  371.0523m 
   65.50000m  460.1855m  278.4241m  367.5545m  371.0550m 
   65.60000m  460.3242m  278.2854m  367.5518m  371.0578m 
   65.70000m  460.4629m  278.1467m  367.5491m  371.0605m 
   65.80000m  460.6016m  278.0080m  367.5464m  371.0633m 
   65.90000m  460.7403m  277.8693m  367.5436m  371.0660m 
   66.00000m  460.8790m  277.7306m  367.5409m  371.0687m 
   66.10000m  461.0177m  277.5920m  367.5382m  371.0715m 
   66.20000m  461.1564m  277.4533m  367.5355m  371.0742m 
   66.30000m  461.2951m  277.3146m  367.5327m  371.0770m 
   66.40000m  461.4338m  277.1759m  367.5300m  371.0797m 
   66.50000m  461.5725m  277.0372m  367.5273m  371.0824m 
   66.60000m  461.7112m  276.8986m  367.5245m  371.0852m 
   66.70000m  461.8498m  276.7599m  367.5218m  371.0879m 
   66.80000m  461.9885m  276.6212m  367.5191m  371.0907m 
   66.90000m  462.1272m  276.4825m  367.5163m  371.0934m 
   67.00000m  462.2659m  276.3438m  367.5136m  371.0961m 
   67.10000m  462.4046m  276.2052m  367.5109m  371.0989m 
   67.20000m  462.5433m  276.0665m  367.5081m  371.1016m 
   67.30000m  462.6820m  275.9278m  367.5054m  371.1044m 
   67.40000m  462.8207m  275.7891m  367.5027m  371.1071m 
   67.50000m  462.9594m  275.6504m  367.4999m  371.1099m 
   67.60000m  463.0980m  275.5118m  367.4972m  371.1126m 
   67.70000m  463.2367m  275.3731m  367.4945m  371.1154m 
   67.80000m  463.3754m  275.2344m  367.4917m  371.1181m 
   67.90000m  463.5141m  275.0957m  367.4890m  371.1208m 
   68.00000m  463.6528m  274.9571m  367.4863m  371.1236m 
   68.10000m  463.7915m  274.8184m  367.4835m  371.1263m 
   68.20000m  463.9302m  274.6797m  367.4808m  371.1291m 
   68.30000m  464.0689m  274.5410m  367.4781m  371.1318m 
   68.40000m  464.2075m  274.4024m  367.4753m  371.1346m 
   68.50000m  464.3462m  274.2637m  367.4726m  371.1373m 
   68.60000m  464.4849m  274.1250m  367.4699m  371.1401m 
   68.70000m  464.6236m  273.9863m  367.4671m  371.1428m 
   68.80000m  464.7623m  273.8477m  367.4644m  371.1456m 
   68.90000m  464.9010m  273.7090m  367.4616m  371.1483m 
   69.00000m  465.0396m  273.5703m  367.4589m  371.1511m 
   69.10000m  465.1783m  273.4316m  367.4562m  371.1538m 
   69.20000m  465.3170m  273.2930m  367.4534m  371.1566m 
   69.30000m  465.4557m  273.1543m  367.4507m  371.1593m 
   69.40000m  465.5944m  273.0156m  367.4479m  371.1620m 
   69.50000m  465.7330m  272.8770m  367.4452m  371.1648m 
   69.60000m  465.8717m  272.7383m  367.4425m  371.1675m 
   69.70000m  466.0104m  272.5996m  367.4397m  371.1703m 
   69.80000m  466.1491m  272.4609m  367.4370m  371.1731m 
   69.90000m  466.2878m  272.3223m  367.4342m  371.1758m 
   70.00000m  466.4264m  272.1836m  367.4315m  371.1786m 
   70.10000m  466.5651m  272.0449m  367.4287m  371.1813m 
   70.20000m  466.7038m  271.9063m  367.4260m  371.1841m 
   70.30000m  466.8425m  271.7676m  367.4233m  371.1868m 
   70.40000m  466.9812m  271.6289m  367.4205m  371.1896m 
   70.50000m  467.1198m  271.4903m  367.4178m  371.1923m 
   70.60000m  467.2585m  271.3516m  367.4150m  371.1951m 
   70.70000m  467.3972m  271.2129m  367.4123m  371.1978m 
   70.80000m  467.5359m  271.0743m  367.4095m  371.2006m 
   70.90000m  467.6745m  270.9356m  367.4068m  371.2033m 
   71.00000m  467.8132m  270.7969m  367.4040m  371.2061m 
   71.10000m  467.9519m  270.6583m  367.4013m  371.2088m 
   71.20000m  468.0906m  270.5196m  367.3985m  371.2116m 
   71.30000m  468.2292m  270.3809m  367.3958m  371.2143m 
   71.40000m  468.3679m  270.2423m  367.3931m  371.2171m 
   71.50000m  468.5066m  270.1036m  367.3903m  371.2199m 
   71.60000m  468.6452m  269.9649m  367.3876m  371.2226m 
   71.70000m  468.7839m  269.8263m  367.3848m  371.2254m 
   71.80000m  468.9226m  269.6876m  367.3821m  371.2281m 
   71.90000m  469.0613m  269.5489m  367.3793m  371.2309m 
   72.00000m  469.1999m  269.4103m  367.3766m  371.2336m 
   72.10000m  469.3386m  269.2716m  367.3738m  371.2364m 
   72.20000m  469.4773m  269.1329m  367.3710m  371.2392m 
   72.30000m  469.6159m  268.9943m  367.3683m  371.2419m 
   72.40000m  469.7546m  268.8556m  367.3655m  371.2447m 
   72.50000m  469.8933m  268.7170m  367.3628m  371.2474m 
   72.60000m  470.0319m  268.5783m  367.3600m  371.2502m 
   72.70000m  470.1706m  268.4396m  367.3573m  371.2530m 
   72.80000m  470.3093m  268.3010m  367.3545m  371.2557m 
   72.90000m  470.4479m  268.1623m  367.3518m  371.2585m 
   73.00000m  470.5866m  268.0236m  367.3490m  371.2612m 
   73.10000m  470.7253m  267.8850m  367.3463m  371.2640m 
   73.20000m  470.8639m  267.7463m  367.3435m  371.2668m 
   73.30000m  471.0026m  267.6077m  367.3407m  371.2695m 
   73.40000m  471.1413m  267.4690m  367.3380m  371.2723m 
   73.50000m  471.2799m  267.3303m  367.3352m  371.2750m 
   73.60000m  471.4186m  267.1917m  367.3325m  371.2778m 
   73.70000m  471.5573m  267.0530m  367.3297m  371.2806m 
   73.80000m  471.6959m  266.9144m  367.3270m  371.2833m 
   73.90000m  471.8346m  266.7757m  367.3242m  371.2861m 
   74.00000m  471.9732m  266.6371m  367.3214m  371.2889m 
   74.10000m  472.1119m  266.4984m  367.3187m  371.2916m 
   74.20000m  472.2506m  266.3597m  367.3159m  371.2944m 
   74.30000m  472.3892m  266.2211m  367.3132m  371.2972m 
   74.40000m  472.5279m  266.0824m  367.3104m  371.2999m 
   74.50000m  472.6665m  265.9438m  367.3076m  371.3027m 
   74.60000m  472.8052m  265.8051m  367.3049m  371.3054m 
   74.70000m  472.9439m  265.6665m  367.3021m  371.3082m 
   74.80000m  473.0825m  265.5278m  367.2993m  371.3110m 
   74.90000m  473.2212m  265.3892m  367.2966m  371.3137m 
   75.00000m  473.3598m  265.2505m  367.2938m  371.3165m 
   75.10000m  473.4985m  265.1118m  367.2911m  371.3193m 
   75.20000m  473.6371m  264.9732m  367.2883m  371.3221m 
   75.30000m  473.7758m  264.8345m  367.2855m  371.3248m 
   75.40000m  473.9145m  264.6959m  367.2828m  371.3276m 
   75.50000m  474.0531m  264.5572m  367.2800m  371.3304m 
   75.60000m  474.1918m  264.4186m  367.2772m  371.3331m 
   75.70000m  474.3304m  264.2799m  367.2745m  371.3359m 
   75.80000m  474.4691m  264.1413m  367.2717m  371.3387m 
   75.90000m  474.6077m  264.0026m  367.2689m  371.3414m 
   76.00000m  474.7464m  263.8640m  367.2662m  371.3442m 
   76.10000m  474.8850m  263.7253m  367.2634m  371.3470m 
   76.20000m  475.0237m  263.5867m  367.2606m  371.3497m 
   76.30000m  475.1623m  263.4480m  367.2578m  371.3525m 
   76.40000m  475.3010m  263.3094m  367.2551m  371.3553m 
   76.50000m  475.4396m  263.1707m  367.2523m  371.3581m 
   76.60000m  475.5783m  263.0321m  367.2495m  371.3608m 
   76.70000m  475.7169m  262.8934m  367.2468m  371.3636m 
   76.80000m  475.8556m  262.7548m  367.2440m  371.3664m 
   76.90000m  475.9942m  262.6161m  367.2412m  371.3692m 
   77.00000m  476.1329m  262.4775m  367.2384m  371.3719m 
   77.10000m  476.2715m  262.3388m  367.2357m  371.3747m 
   77.20000m  476.4102m  262.2002m  367.2329m  371.3775m 
   77.30000m  476.5488m  262.0615m  367.2301m  371.3803m 
   77.40000m  476.6875m  261.9229m  367.2273m  371.3830m 
   77.50000m  476.8261m  261.7843m  367.2246m  371.3858m 
   77.60000m  476.9648m  261.6456m  367.2218m  371.3886m 
   77.70000m  477.1034m  261.5070m  367.2190m  371.3914m 
   77.80000m  477.2420m  261.3683m  367.2162m  371.3941m 
   77.90000m  477.3807m  261.2297m  367.2134m  371.3969m 
   78.00000m  477.5193m  261.0910m  367.2107m  371.3997m 
   78.10000m  477.6580m  260.9524m  367.2079m  371.4025m 
   78.20000m  477.7966m  260.8137m  367.2051m  371.4052m 
   78.30000m  477.9353m  260.6751m  367.2023m  371.4080m 
   78.40000m  478.0739m  260.5365m  367.1995m  371.4108m 
   78.50000m  478.2125m  260.3978m  367.1968m  371.4136m 
   78.60000m  478.3512m  260.2592m  367.1940m  371.4164m 
   78.70000m  478.4898m  260.1205m  367.1912m  371.4191m 
   78.80000m  478.6284m  259.9819m  367.1884m  371.4219m 
   78.90000m  478.7671m  259.8433m  367.1856m  371.4247m 
   79.00000m  478.9057m  259.7046m  367.1829m  371.4275m 
   79.10000m  479.0444m  259.5660m  367.1801m  371.4303m 
   79.20000m  479.1830m  259.4273m  367.1773m  371.4331m 
   79.30000m  479.3216m  259.2887m  367.1745m  371.4358m 
   79.40000m  479.4603m  259.1501m  367.1717m  371.4386m 
   79.50000m  479.5989m  259.0114m  367.1689m  371.4414m 
   79.60000m  479.7375m  258.8728m  367.1661m  371.4442m 
   79.70000m  479.8762m  258.7341m  367.1634m  371.4470m 
   79.80000m  480.0148m  258.5955m  367.1606m  371.4498m 
   79.90000m  480.1534m  258.4569m  367.1578m  371.4525m 
   80.00000m  480.2921m  258.3182m  367.1550m  371.4553m 
   80.10000m  480.4307m  258.1796m  367.1522m  371.4581m 
   80.20000m  480.5693m  258.0410m  367.1494m  371.4609m 
   80.30000m  480.7080m  257.9023m  367.1466m  371.4637m 
   80.40000m  480.8466m  257.7637m  367.1438m  371.4665m 
   80.50000m  480.9852m  257.6251m  367.1410m  371.4693m 
   80.60000m  481.1239m  257.4864m  367.1382m  371.4720m 
   80.70000m  481.2625m  257.3478m  367.1354m  371.4748m 
   80.80000m  481.4011m  257.2092m  367.1327m  371.4776m 
   80.90000m  481.5397m  257.0705m  367.1299m  371.4804m 
   81.00000m  481.6784m  256.9319m  367.1271m  371.4832m 
   81.10000m  481.8170m  256.7933m  367.1243m  371.4860m 
   81.20000m  481.9556m  256.6546m  367.1215m  371.4888m 
   81.30000m  482.0942m  256.5160m  367.1187m  371.4916m 
   81.40000m  482.2329m  256.3774m  367.1159m  371.4943m 
   81.50000m  482.3715m  256.2387m  367.1131m  371.4971m 
   81.60000m  482.5101m  256.1001m  367.1103m  371.4999m 
   81.70000m  482.6487m  255.9615m  367.1075m  371.5027m 
   81.80000m  482.7874m  255.8228m  367.1047m  371.5055m 
   81.90000m  482.9260m  255.6842m  367.1019m  371.5083m 
   82.00000m  483.0646m  255.5456m  367.0991m  371.5111m 
   82.10000m  483.2032m  255.4070m  367.0963m  371.5139m 
   82.20000m  483.3418m  255.2683m  367.0935m  371.5167m 
   82.30000m  483.4805m  255.1297m  367.0907m  371.5195m 
   82.40000m  483.6191m  254.9911m  367.0879m  371.5223m 
   82.50000m  483.7577m  254.8524m  367.0851m  371.5251m 
   82.60000m  483.8963m  254.7138m  367.0823m  371.5279m 
   82.70000m  484.0349m  254.5752m  367.0795m  371.5307m 
   82.80000m  484.1735m  254.4366m  367.0767m  371.5335m 
   82.90000m  484.3122m  254.2979m  367.0739m  371.5362m 
   83.00000m  484.4508m  254.1593m  367.0711m  371.5390m 
   83.10000m  484.5894m  254.0207m  367.0682m  371.5418m 
   83.20000m  484.7280m  253.8821m  367.0654m  371.5446m 
   83.30000m  484.8666m  253.7434m  367.0626m  371.5474m 
   83.40000m  485.0052m  253.6048m  367.0598m  371.5502m 
   83.50000m  485.1438m  253.4662m  367.0570m  371.5530m 
   83.60000m  485.2825m  253.3276m  367.0542m  371.5558m 
   83.70000m  485.4211m  253.1890m  367.0514m  371.5586m 
   83.80000m  485.5597m  253.0503m  367.0486m  371.5614m 
   83.90000m  485.6983m  252.9117m  367.0458m  371.5642m 
   84.00000m  485.8369m  252.7731m  367.0430m  371.5670m 
   84.10000m  485.9755m  252.6345m  367.0401m  371.5698m 
   84.20000m  486.1141m  252.4958m  367.0373m  371.5726m 
   84.30000m  486.2527m  252.3572m  367.0345m  371.5754m 
   84.40000m  486.3913m  252.2186m  367.0317m  371.5782m 
   84.50000m  486.5299m  252.0800m  367.0289m  371.5810m 
   84.60000m  486.6685m  251.9414m  367.0261m  371.5838m 
   84.70000m  486.8071m  251.8028m  367.0233m  371.5866m 
   84.80000m  486.9457m  251.6641m  367.0204m  371.5894m 
   84.90000m  487.0844m  251.5255m  367.0176m  371.5922m 
   85.00000m  487.2230m  251.3869m  367.0148m  371.5951m 
   85.10000m  487.3616m  251.2483m  367.0120m  371.5979m 
   85.20000m  487.5002m  251.1097m  367.0092m  371.6007m 
   85.30000m  487.6388m  250.9711m  367.0063m  371.6035m 
   85.40000m  487.7774m  250.8324m  367.0035m  371.6063m 
   85.50000m  487.9160m  250.6938m  367.0007m  371.6091m 
   85.60000m  488.0546m  250.5552m  366.9979m  371.6119m 
   85.70000m  488.1932m  250.4166m  366.9951m  371.6147m 
   85.80000m  488.3318m  250.2780m  366.9922m  371.6175m 
   85.90000m  488.4704m  250.1394m  366.9894m  371.6203m 
   86.00000m  488.6090m  250.0008m  366.9866m  371.6231m 
   86.10000m  488.7475m  249.8621m  366.9838m  371.6259m 
   86.20000m  488.8861m  249.7235m  366.9809m  371.6287m 
   86.30000m  489.0247m  249.5849m  366.9781m  371.6315m 
   86.40000m  489.1633m  249.4463m  366.9753m  371.6344m 
   86.50000m  489.3019m  249.3077m  366.9725m  371.6372m 
   86.60000m  489.4405m  249.1691m  366.9696m  371.6400m 
   86.70000m  489.5791m  249.0305m  366.9668m  371.6428m 
   86.80000m  489.7177m  248.8919m  366.9640m  371.6456m 
   86.90000m  489.8563m  248.7533m  366.9611m  371.6484m 
   87.00000m  489.9949m  248.6146m  366.9583m  371.6512m 
   87.10000m  490.1335m  248.4760m  366.9555m  371.6540m 
   87.20000m  490.2721m  248.3374m  366.9526m  371.6569m 
   87.30000m  490.4106m  248.1988m  366.9498m  371.6597m 
   87.40000m  490.5492m  248.0602m  366.9470m  371.6625m 
   87.50000m  490.6878m  247.9216m  366.9441m  371.6653m 
   87.60000m  490.8264m  247.7830m  366.9413m  371.6681m 
   87.70000m  490.9650m  247.6444m  366.9385m  371.6709m 
   87.80000m  491.1036m  247.5058m  366.9356m  371.6737m 
   87.90000m  491.2422m  247.3672m  366.9328m  371.6766m 
   88.00000m  491.3807m  247.2286m  366.9300m  371.6794m 
   88.10000m  491.5193m  247.0900m  366.9271m  371.6822m 
   88.20000m  491.6579m  246.9514m  366.9243m  371.6850m 
   88.30000m  491.7965m  246.8128m  366.9214m  371.6878m 
   88.40000m  491.9351m  246.6742m  366.9186m  371.6907m 
   88.50000m  492.0737m  246.5356m  366.9158m  371.6935m 
   88.60000m  492.2122m  246.3970m  366.9129m  371.6963m 
   88.70000m  492.3508m  246.2584m  366.9101m  371.6991m 
   88.80000m  492.4894m  246.1198m  366.9072m  371.7019m 
   88.90000m  492.6280m  245.9812m  366.9044m  371.7048m 
   89.00000m  492.7665m  245.8426m  366.9015m  371.7076m 
   89.10000m  492.9051m  245.7040m  366.8987m  371.7104m 
   89.20000m  493.0437m  245.5654m  366.8958m  371.7132m 
   89.30000m  493.1823m  245.4268m  366.8930m  371.7160m 
   89.40000m  493.3208m  245.2882m  366.8901m  371.7189m 
   89.50000m  493.4594m  245.1496m  366.8873m  371.7217m 
   89.60000m  493.5980m  245.0110m  366.8845m  371.7245m 
   89.70000m  493.7366m  244.8724m  366.8816m  371.7273m 
   89.80000m  493.8751m  244.7338m  366.8788m  371.7302m 
   89.90000m  494.0137m  244.5952m  366.8759m  371.7330m 
   90.00000m  494.1523m  244.4566m  366.8730m  371.7358m 
   90.10000m  494.2908m  244.3180m  366.8702m  371.7386m 
   90.20000m  494.4294m  244.1794m  366.8673m  371.7415m 
   90.30000m  494.5680m  244.0408m  366.8645m  371.7443m 
   90.40000m  494.7065m  243.9022m  366.8616m  371.7471m 
   90.50000m  494.8451m  243.7636m  366.8588m  371.7499m 
   90.60000m  494.9837m  243.6250m  366.8559m  371.7528m 
   90.70000m  495.1222m  243.4864m  366.8531m  371.7556m 
   90.80000m  495.2608m  243.3478m  366.8502m  371.7584m 
   90.90000m  495.3994m  243.2093m  366.8473m  371.7613m 
   91.00000m  495.5379m  243.0707m  366.8445m  371.7641m 
   91.10000m  495.6765m  242.9321m  366.8416m  371.7669m 
   91.20000m  495.8150m  242.7935m  366.8388m  371.7698m 
   91.30000m  495.9536m  242.6549m  366.8359m  371.7726m 
   91.40000m  496.0922m  242.5163m  366.8330m  371.7754m 
   91.50000m  496.2307m  242.3777m  366.8302m  371.7783m 
   91.60000m  496.3693m  242.2391m  366.8273m  371.7811m 
   91.70000m  496.5078m  242.1005m  366.8244m  371.7839m 
   91.80000m  496.6464m  241.9620m  366.8216m  371.7868m 
   91.90000m  496.7849m  241.8234m  366.8187m  371.7896m 
   92.00000m  496.9235m  241.6848m  366.8158m  371.7924m 
   92.10000m  497.0621m  241.5462m  366.8130m  371.7953m 
   92.20000m  497.2006m  241.4076m  366.8101m  371.7981m 
   92.30000m  497.3392m  241.2690m  366.8072m  371.8009m 
   92.40000m  497.4777m  241.1304m  366.8044m  371.8038m 
   92.50000m  497.6163m  240.9919m  366.8015m  371.8066m 
   92.60000m  497.7548m  240.8533m  366.7986m  371.8094m 
   92.70000m  497.8934m  240.7147m  366.7958m  371.8123m 
   92.80000m  498.0319m  240.5761m  366.7929m  371.8151m 
   92.90000m  498.1704m  240.4375m  366.7900m  371.8180m 
   93.00000m  498.3090m  240.2989m  366.7871m  371.8208m 
   93.10000m  498.4475m  240.1604m  366.7843m  371.8236m 
   93.20000m  498.5861m  240.0218m  366.7814m  371.8265m 
   93.30000m  498.7246m  239.8832m  366.7785m  371.8293m 
   93.40000m  498.8632m  239.7446m  366.7756m  371.8322m 
   93.50000m  499.0017m  239.6060m  366.7727m  371.8350m 
   93.60000m  499.1403m  239.4675m  366.7699m  371.8379m 
   93.70000m  499.2788m  239.3289m  366.7670m  371.8407m 
   93.80000m  499.4173m  239.1903m  366.7641m  371.8435m 
   93.90000m  499.5559m  239.0517m  366.7612m  371.8464m 
   94.00000m  499.6944m  238.9132m  366.7583m  371.8492m 
   94.10000m  499.8330m  238.7746m  366.7555m  371.8521m 
   94.20000m  499.9715m  238.6360m  366.7526m  371.8549m 
   94.30000m  500.1100m  238.4974m  366.7497m  371.8578m 
   94.40000m  500.2486m  238.3589m  366.7468m  371.8606m 
   94.50000m  500.3871m  238.2203m  366.7439m  371.8635m 
   94.60000m  500.5256m  238.0817m  366.7410m  371.8663m 
   94.70000m  500.6642m  237.9431m  366.7381m  371.8692m 
   94.80000m  500.8027m  237.8046m  366.7352m  371.8720m 
   94.90000m  500.9412m  237.6660m  366.7324m  371.8749m 
   95.00000m  501.0798m  237.5274m  366.7295m  371.8777m 
   95.10000m  501.2183m  237.3888m  366.7266m  371.8806m 
   95.20000m  501.3568m  237.2503m  366.7237m  371.8834m 
   95.30000m  501.4953m  237.1117m  366.7208m  371.8863m 
   95.40000m  501.6339m  236.9731m  366.7179m  371.8891m 
   95.50000m  501.7724m  236.8346m  366.7150m  371.8920m 
   95.60000m  501.9109m  236.6960m  366.7121m  371.8948m 
   95.70000m  502.0494m  236.5574m  366.7092m  371.8977m 
   95.80000m  502.1880m  236.4189m  366.7063m  371.9005m 
   95.90000m  502.3265m  236.2803m  366.7034m  371.9034m 
   96.00000m  502.4650m  236.1417m  366.7005m  371.9062m 
   96.10000m  502.6035m  236.0032m  366.6976m  371.9091m 
   96.20000m  502.7420m  235.8646m  366.6947m  371.9119m 
   96.30000m  502.8806m  235.7260m  366.6918m  371.9148m 
   96.40000m  503.0191m  235.5875m  366.6889m  371.9177m 
   96.50000m  503.1576m  235.4489m  366.6860m  371.9205m 
   96.60000m  503.2961m  235.3103m  366.6831m  371.9234m 
   96.70000m  503.4346m  235.1718m  366.6802m  371.9262m 
   96.80000m  503.5731m  235.0332m  366.6773m  371.9291m 
   96.90000m  503.7117m  234.8947m  366.6744m  371.9319m 
   97.00000m  503.8502m  234.7561m  366.6714m  371.9348m 
   97.10000m  503.9887m  234.6175m  366.6685m  371.9377m 
   97.20000m  504.1272m  234.4790m  366.6656m  371.9405m 
   97.30000m  504.2657m  234.3404m  366.6627m  371.9434m 
   97.40000m  504.4042m  234.2019m  366.6598m  371.9463m 
   97.50000m  504.5427m  234.0633m  366.6569m  371.9491m 
   97.60000m  504.6812m  233.9247m  366.6540m  371.9520m 
   97.70000m  504.8197m  233.7862m  366.6511m  371.9548m 
   97.80000m  504.9582m  233.6476m  366.6481m  371.9577m 
   97.90000m  505.0967m  233.5091m  366.6452m  371.9606m 
   98.00000m  505.2352m  233.3705m  366.6423m  371.9634m 
   98.10000m  505.3737m  233.2320m  366.6394m  371.9663m 
   98.20000m  505.5122m  233.0934m  366.6365m  371.9692m 
   98.30000m  505.6507m  232.9548m  366.6335m  371.9720m 
   98.40000m  505.7892m  232.8163m  366.6306m  371.9749m 
   98.50000m  505.9277m  232.6777m  366.6277m  371.9778m 
   98.60000m  506.0662m  232.5392m  366.6248m  371.9806m 
   98.70000m  506.2047m  232.4006m  366.6219m  371.9835m 
   98.80000m  506.3432m  232.2621m  366.6189m  371.9864m 
   98.90000m  506.4817m  232.1235m  366.6160m  371.9892m 
   99.00000m  506.6202m  231.9850m  366.6131m  371.9921m 
   99.10000m  506.7587m  231.8464m  366.6101m  371.9950m 
   99.20000m  506.8972m  231.7079m  366.6072m  371.9979m 
   99.30000m  507.0357m  231.5693m  366.6043m  372.0007m 
   99.40000m  507.1742m  231.4308m  366.6014m  372.0036m 
   99.50000m  507.3127m  231.2922m  366.5984m  372.0065m 
   99.60000m  507.4512m  231.1537m  366.5955m  372.0094m 
   99.70000m  507.5896m  231.0151m  366.5925m  372.0122m 
   99.80000m  507.7281m  230.8766m  366.5896m  372.0151m 
   99.90000m  507.8666m  230.7380m  366.5867m  372.0180m 
  100.00000m  508.0051m  230.5995m  366.5837m  372.0209m 
  100.10000m  508.1436m  230.4610m  366.5808m  372.0237m 
  100.20000m  508.2821m  230.3224m  366.5779m  372.0266m 
  100.30000m  508.4205m  230.1839m  366.5749m  372.0295m 
  100.40000m  508.5590m  230.0453m  366.5720m  372.0324m 
  100.50000m  508.6975m  229.9068m  366.5690m  372.0352m 
  100.60000m  508.8360m  229.7682m  366.5661m  372.0381m 
  100.70000m  508.9745m  229.6297m  366.5631m  372.0410m 
  100.80000m  509.1129m  229.4912m  366.5602m  372.0439m 
  100.90000m  509.2514m  229.3526m  366.5573m  372.0468m 
  101.00000m  509.3899m  229.2141m  366.5543m  372.0496m 
  101.10000m  509.5283m  229.0755m  366.5514m  372.0525m 
  101.20000m  509.6668m  228.9370m  366.5484m  372.0554m 
  101.30000m  509.8053m  228.7985m  366.5455m  372.0583m 
  101.40000m  509.9438m  228.6599m  366.5425m  372.0612m 
  101.50000m  510.0822m  228.5214m  366.5396m  372.0641m 
  101.60000m  510.2207m  228.3829m  366.5366m  372.0670m 
  101.70000m  510.3592m  228.2443m  366.5336m  372.0698m 
  101.80000m  510.4976m  228.1058m  366.5307m  372.0727m 
  101.90000m  510.6361m  227.9672m  366.5277m  372.0756m 
  102.00000m  510.7746m  227.8287m  366.5248m  372.0785m 
  102.10000m  510.9130m  227.6902m  366.5218m  372.0814m 
  102.20000m  511.0515m  227.5517m  366.5189m  372.0843m 
  102.30000m  511.1899m  227.4131m  366.5159m  372.0872m 
  102.40000m  511.3284m  227.2746m  366.5129m  372.0901m 
  102.50000m  511.4669m  227.1361m  366.5100m  372.0929m 
  102.60000m  511.6053m  226.9975m  366.5070m  372.0958m 
  102.70000m  511.7438m  226.8590m  366.5040m  372.0987m 
  102.80000m  511.8822m  226.7205m  366.5011m  372.1016m 
  102.90000m  512.0207m  226.5819m  366.4981m  372.1045m 
  103.00000m  512.1591m  226.4434m  366.4951m  372.1074m 
  103.10000m  512.2976m  226.3049m  366.4922m  372.1103m 
  103.20000m  512.4360m  226.1664m  366.4892m  372.1132m 
  103.30000m  512.5745m  226.0278m  366.4862m  372.1161m 
  103.40000m  512.7129m  225.8893m  366.4832m  372.1190m 
  103.50000m  512.8514m  225.7508m  366.4803m  372.1219m 
  103.60000m  512.9898m  225.6123m  366.4773m  372.1248m 
  103.70000m  513.1283m  225.4737m  366.4743m  372.1277m 
  103.80000m  513.2667m  225.3352m  366.4713m  372.1306m 
  103.90000m  513.4051m  225.1967m  366.4684m  372.1335m 
  104.00000m  513.5436m  225.0582m  366.4654m  372.1364m 
  104.10000m  513.6820m  224.9196m  366.4624m  372.1393m 
  104.20000m  513.8205m  224.7811m  366.4594m  372.1422m 
  104.30000m  513.9589m  224.6426m  366.4564m  372.1451m 
  104.40000m  514.0973m  224.5041m  366.4534m  372.1480m 
  104.50000m  514.2358m  224.3656m  366.4505m  372.1509m 
  104.60000m  514.3742m  224.2270m  366.4475m  372.1538m 
  104.70000m  514.5126m  224.0885m  366.4445m  372.1567m 
  104.80000m  514.6511m  223.9500m  366.4415m  372.1596m 
  104.90000m  514.7895m  223.8115m  366.4385m  372.1625m 
  105.00000m  514.9279m  223.6730m  366.4355m  372.1654m 
  105.10000m  515.0664m  223.5345m  366.4325m  372.1683m 
  105.20000m  515.2048m  223.3960m  366.4295m  372.1712m 
  105.30000m  515.3432m  223.2574m  366.4265m  372.1741m 
  105.40000m  515.4816m  223.1189m  366.4235m  372.1770m 
  105.50000m  515.6201m  222.9804m  366.4205m  372.1799m 
  105.60000m  515.7585m  222.8419m  366.4175m  372.1829m 
  105.70000m  515.8969m  222.7034m  366.4145m  372.1858m 
  105.80000m  516.0353m  222.5649m  366.4115m  372.1887m 
  105.90000m  516.1737m  222.4264m  366.4085m  372.1916m 
  106.00000m  516.3122m  222.2879m  366.4055m  372.1945m 
  106.10000m  516.4506m  222.1493m  366.4025m  372.1974m 
  106.20000m  516.5890m  222.0108m  366.3995m  372.2003m 
  106.30000m  516.7274m  221.8723m  366.3965m  372.2032m 
  106.40000m  516.8658m  221.7338m  366.3935m  372.2061m 
  106.50000m  517.0042m  221.5953m  366.3905m  372.2091m 
  106.60000m  517.1426m  221.4568m  366.3875m  372.2120m 
  106.70000m  517.2811m  221.3183m  366.3845m  372.2149m 
  106.80000m  517.4195m  221.1798m  366.3815m  372.2178m 
  106.90000m  517.5579m  221.0413m  366.3784m  372.2207m 
  107.00000m  517.6963m  220.9028m  366.3754m  372.2236m 
  107.10000m  517.8347m  220.7643m  366.3724m  372.2266m 
  107.20000m  517.9731m  220.6258m  366.3694m  372.2295m 
  107.30000m  518.1115m  220.4873m  366.3664m  372.2324m 
  107.40000m  518.2499m  220.3488m  366.3633m  372.2353m 
  107.50000m  518.3883m  220.2103m  366.3603m  372.2383m 
  107.60000m  518.5267m  220.0718m  366.3573m  372.2412m 
  107.70000m  518.6651m  219.9333m  366.3543m  372.2441m 
  107.80000m  518.8035m  219.7948m  366.3512m  372.2470m 
  107.90000m  518.9419m  219.6563m  366.3482m  372.2499m 
  108.00000m  519.0803m  219.5178m  366.3452m  372.2529m 
  108.10000m  519.2186m  219.3793m  366.3422m  372.2558m 
  108.20000m  519.3570m  219.2408m  366.3391m  372.2587m 
  108.30000m  519.4954m  219.1023m  366.3361m  372.2616m 
  108.40000m  519.6338m  218.9638m  366.3331m  372.2646m 
  108.50000m  519.7722m  218.8253m  366.3300m  372.2675m 
  108.60000m  519.9106m  218.6868m  366.3270m  372.2704m 
  108.70000m  520.0490m  218.5483m  366.3240m  372.2734m 
  108.80000m  520.1873m  218.4099m  366.3209m  372.2763m 
  108.90000m  520.3257m  218.2714m  366.3179m  372.2792m 
  109.00000m  520.4641m  218.1329m  366.3148m  372.2822m 
  109.10000m  520.6025m  217.9944m  366.3118m  372.2851m 
  109.20000m  520.7409m  217.8559m  366.3087m  372.2880m 
  109.30000m  520.8792m  217.7174m  366.3057m  372.2910m 
  109.40000m  521.0176m  217.5789m  366.3026m  372.2939m 
  109.50000m  521.1560m  217.4404m  366.2996m  372.2968m 
  109.60000m  521.2944m  217.3020m  366.2966m  372.2998m 
  109.70000m  521.4327m  217.1635m  366.2935m  372.3027m 
  109.80000m  521.5711m  217.0250m  366.2904m  372.3056m 
  109.90000m  521.7095m  216.8865m  366.2874m  372.3086m 
  110.00000m  521.8478m  216.7480m  366.2843m  372.3115m 
  110.10000m  521.9862m  216.6095m  366.2813m  372.3144m 
  110.20000m  522.1246m  216.4711m  366.2782m  372.3174m 
  110.30000m  522.2629m  216.3326m  366.2752m  372.3203m 
  110.40000m  522.4013m  216.1941m  366.2721m  372.3233m 
  110.50000m  522.5396m  216.0556m  366.2690m  372.3262m 
  110.60000m  522.6780m  215.9171m  366.2660m  372.3292m 
  110.70000m  522.8163m  215.7787m  366.2629m  372.3321m 
  110.80000m  522.9547m  215.6402m  366.2598m  372.3350m 
  110.90000m  523.0931m  215.5017m  366.2568m  372.3380m 
  111.00000m  523.2314m  215.3632m  366.2537m  372.3409m 
  111.10000m  523.3698m  215.2248m  366.2506m  372.3439m 
  111.20000m  523.5081m  215.0863m  366.2476m  372.3468m 
  111.30000m  523.6465m  214.9478m  366.2445m  372.3498m 
  111.40000m  523.7848m  214.8093m  366.2414m  372.3527m 
  111.50000m  523.9231m  214.6709m  366.2383m  372.3557m 
  111.60000m  524.0615m  214.5324m  366.2353m  372.3586m 
  111.70000m  524.1998m  214.3939m  366.2322m  372.3616m 
  111.80000m  524.3382m  214.2554m  366.2291m  372.3645m 
  111.90000m  524.4765m  214.1170m  366.2260m  372.3675m 
  112.00000m  524.6148m  213.9785m  366.2229m  372.3704m 
  112.10000m  524.7532m  213.8400m  366.2198m  372.3734m 
  112.20000m  524.8915m  213.7016m  366.2168m  372.3763m 
  112.30000m  525.0298m  213.5631m  366.2137m  372.3793m 
  112.40000m  525.1682m  213.4246m  366.2106m  372.3822m 
  112.50000m  525.3065m  213.2862m  366.2075m  372.3852m 
  112.60000m  525.4448m  213.1477m  366.2044m  372.3882m 
  112.70000m  525.5832m  213.0092m  366.2013m  372.3911m 
  112.80000m  525.7215m  212.8708m  366.1982m  372.3941m 
  112.90000m  525.8598m  212.7323m  366.1951m  372.3970m 
  113.00000m  525.9981m  212.5939m  366.1920m  372.4000m 
  113.10000m  526.1365m  212.4554m  366.1889m  372.4030m 
  113.20000m  526.2748m  212.3169m  366.1858m  372.4059m 
  113.30000m  526.4131m  212.1785m  366.1827m  372.4089m 
  113.40000m  526.5514m  212.0400m  366.1796m  372.4118m 
  113.50000m  526.6897m  211.9016m  366.1765m  372.4148m 
  113.60000m  526.8280m  211.7631m  366.1734m  372.4178m 
  113.70000m  526.9663m  211.6247m  366.1703m  372.4207m 
  113.80000m  527.1047m  211.4862m  366.1672m  372.4237m 
  113.90000m  527.2430m  211.3477m  366.1640m  372.4267m 
  114.00000m  527.3813m  211.2093m  366.1609m  372.4296m 
  114.10000m  527.5196m  211.0708m  366.1578m  372.4326m 
  114.20000m  527.6579m  210.9324m  366.1547m  372.4356m 
  114.30000m  527.7962m  210.7939m  366.1516m  372.4385m 
  114.40000m  527.9345m  210.6555m  366.1484m  372.4415m 
  114.50000m  528.0728m  210.5170m  366.1453m  372.4445m 
  114.60000m  528.2111m  210.3786m  366.1422m  372.4475m 
  114.70000m  528.3494m  210.2401m  366.1391m  372.4504m 
  114.80000m  528.4877m  210.1017m  366.1359m  372.4534m 
  114.90000m  528.6260m  209.9632m  366.1328m  372.4564m 
  115.00000m  528.7642m  209.8248m  366.1297m  372.4594m 
  115.10000m  528.9025m  209.6864m  366.1266m  372.4623m 
  115.20000m  529.0408m  209.5479m  366.1234m  372.4653m 
  115.30000m  529.1791m  209.4095m  366.1203m  372.4683m 
  115.40000m  529.3174m  209.2710m  366.1171m  372.4713m 
  115.50000m  529.4557m  209.1326m  366.1140m  372.4742m 
  115.60000m  529.5940m  208.9941m  366.1109m  372.4772m 
  115.70000m  529.7322m  208.8557m  366.1077m  372.4802m 
  115.80000m  529.8705m  208.7173m  366.1046m  372.4832m 
  115.90000m  530.0088m  208.5788m  366.1014m  372.4862m 
  116.00000m  530.1471m  208.4404m  366.0983m  372.4892m 
  116.10000m  530.2853m  208.3019m  366.0951m  372.4921m 
  116.20000m  530.4236m  208.1635m  366.0920m  372.4951m 
  116.30000m  530.5619m  208.0251m  366.0888m  372.4981m 
  116.40000m  530.7001m  207.8866m  366.0857m  372.5011m 
  116.50000m  530.8384m  207.7482m  366.0825m  372.5041m 
  116.60000m  530.9767m  207.6098m  366.0794m  372.5071m 
  116.70000m  531.1149m  207.4713m  366.0762m  372.5101m 
  116.80000m  531.2532m  207.3329m  366.0730m  372.5131m 
  116.90000m  531.3914m  207.1945m  366.0699m  372.5160m 
  117.00000m  531.5297m  207.0560m  366.0667m  372.5190m 
  117.10000m  531.6680m  206.9176m  366.0635m  372.5220m 
  117.20000m  531.8062m  206.7792m  366.0604m  372.5250m 
  117.30000m  531.9445m  206.6408m  366.0572m  372.5280m 
  117.40000m  532.0827m  206.5023m  366.0540m  372.5310m 
  117.50000m  532.2210m  206.3639m  366.0509m  372.5340m 
  117.60000m  532.3592m  206.2255m  366.0477m  372.5370m 
  117.70000m  532.4974m  206.0871m  366.0445m  372.5400m 
  117.80000m  532.6357m  205.9486m  366.0413m  372.5430m 
  117.90000m  532.7739m  205.8102m  366.0381m  372.5460m 
  118.00000m  532.9122m  205.6718m  366.0350m  372.5490m 
  118.10000m  533.0504m  205.5334m  366.0318m  372.5520m 
  118.20000m  533.1886m  205.3950m  366.0286m  372.5550m 
  118.30000m  533.3269m  205.2565m  366.0254m  372.5580m 
  118.40000m  533.4651m  205.1181m  366.0222m  372.5610m 
  118.50000m  533.6033m  204.9797m  366.0190m  372.5640m 
  118.60000m  533.7416m  204.8413m  366.0158m  372.5670m 
  118.70000m  533.8798m  204.7029m  366.0126m  372.5700m 
  118.80000m  534.0180m  204.5644m  366.0094m  372.5730m 
  118.90000m  534.1562m  204.4260m  366.0062m  372.5760m 
  119.00000m  534.2944m  204.2876m  366.0030m  372.5790m 
  119.10000m  534.4327m  204.1492m  365.9998m  372.5820m 
  119.20000m  534.5709m  204.0108m  365.9966m  372.5851m 
  119.30000m  534.7091m  203.8724m  365.9934m  372.5881m 
  119.40000m  534.8473m  203.7340m  365.9902m  372.5911m 
  119.50000m  534.9855m  203.5956m  365.9870m  372.5941m 
  119.60000m  535.1237m  203.4572m  365.9838m  372.5971m 
  119.70000m  535.2619m  203.3188m  365.9806m  372.6001m 
  119.80000m  535.4001m  203.1803m  365.9773m  372.6031m 
  119.90000m  535.5383m  203.0419m  365.9741m  372.6061m 
  120.00000m  535.6765m  202.9035m  365.9709m  372.6092m 
  120.10000m  535.8147m  202.7651m  365.9677m  372.6122m 
  120.20000m  535.9529m  202.6267m  365.9645m  372.6152m 
  120.30000m  536.0911m  202.4883m  365.9612m  372.6182m 
  120.40000m  536.2293m  202.3499m  365.9580m  372.6212m 
  120.50000m  536.3675m  202.2115m  365.9548m  372.6243m 
  120.60000m  536.5057m  202.0731m  365.9515m  372.6273m 
  120.70000m  536.6439m  201.9347m  365.9483m  372.6303m 
  120.80000m  536.7821m  201.7963m  365.9451m  372.6333m 
  120.90000m  536.9203m  201.6579m  365.9418m  372.6364m 
  121.00000m  537.0584m  201.5195m  365.9386m  372.6394m 
  121.10000m  537.1966m  201.3811m  365.9353m  372.6424m 
  121.20000m  537.3348m  201.2428m  365.9321m  372.6454m 
  121.30000m  537.4730m  201.1044m  365.9289m  372.6485m 
  121.40000m  537.6111m  200.9660m  365.9256m  372.6515m 
  121.50000m  537.7493m  200.8276m  365.9224m  372.6545m 
  121.60000m  537.8875m  200.6892m  365.9191m  372.6576m 
  121.70000m  538.0256m  200.5508m  365.9158m  372.6606m 
  121.80000m  538.1638m  200.4124m  365.9126m  372.6636m 
  121.90000m  538.3020m  200.2740m  365.9093m  372.6667m 
  122.00000m  538.4401m  200.1356m  365.9061m  372.6697m 
  122.10000m  538.5783m  199.9973m  365.9028m  372.6727m 
  122.20000m  538.7164m  199.8589m  365.8995m  372.6758m 
  122.30000m  538.8546m  199.7205m  365.8963m  372.6788m 
  122.40000m  538.9927m  199.5821m  365.8930m  372.6818m 
  122.50000m  539.1309m  199.4437m  365.8897m  372.6849m 
  122.60000m  539.2690m  199.3053m  365.8865m  372.6879m 
  122.70000m  539.4072m  199.1670m  365.8832m  372.6910m 
  122.80000m  539.5453m  199.0286m  365.8799m  372.6940m 
  122.90000m  539.6835m  198.8902m  365.8766m  372.6970m 
  123.00000m  539.8216m  198.7518m  365.8733m  372.7001m 
  123.10000m  539.9597m  198.6134m  365.8701m  372.7031m 
  123.20000m  540.0979m  198.4751m  365.8668m  372.7062m 
  123.30000m  540.2360m  198.3367m  365.8635m  372.7092m 
  123.40000m  540.3741m  198.1983m  365.8602m  372.7123m 
  123.50000m  540.5123m  198.0600m  365.8569m  372.7153m 
  123.60000m  540.6504m  197.9216m  365.8536m  372.7184m 
  123.70000m  540.7885m  197.7832m  365.8503m  372.7214m 
  123.80000m  540.9266m  197.6448m  365.8470m  372.7245m 
  123.90000m  541.0648m  197.5065m  365.8437m  372.7275m 
  124.00000m  541.2029m  197.3681m  365.8404m  372.7306m 
  124.10000m  541.3410m  197.2297m  365.8371m  372.7336m 
  124.20000m  541.4791m  197.0914m  365.8338m  372.7367m 
  124.30000m  541.6172m  196.9530m  365.8305m  372.7398m 
  124.40000m  541.7553m  196.8146m  365.8271m  372.7428m 
  124.50000m  541.8934m  196.6763m  365.8238m  372.7459m 
  124.60000m  542.0315m  196.5379m  365.8205m  372.7489m 
  124.70000m  542.1696m  196.3996m  365.8172m  372.7520m 
  124.80000m  542.3077m  196.2612m  365.8139m  372.7551m 
  124.90000m  542.4458m  196.1228m  365.8105m  372.7581m 
  125.00000m  542.5839m  195.9845m  365.8072m  372.7612m 
  125.10000m  542.7220m  195.8461m  365.8039m  372.7642m 
  125.20000m  542.8601m  195.7078m  365.8006m  372.7673m 
  125.30000m  542.9982m  195.5694m  365.7972m  372.7704m 
  125.40000m  543.1363m  195.4311m  365.7939m  372.7734m 
  125.50000m  543.2743m  195.2927m  365.7905m  372.7765m 
  125.60000m  543.4124m  195.1544m  365.7872m  372.7796m 
  125.70000m  543.5505m  195.0160m  365.7839m  372.7827m 
  125.80000m  543.6886m  194.8777m  365.7805m  372.7857m 
  125.90000m  543.8266m  194.7393m  365.7772m  372.7888m 
  126.00000m  543.9647m  194.6010m  365.7738m  372.7919m 
  126.10000m  544.1028m  194.4626m  365.7704m  372.7950m 
  126.20000m  544.2408m  194.3243m  365.7671m  372.7980m 
  126.30000m  544.3789m  194.1859m  365.7637m  372.8011m 
  126.40000m  544.5170m  194.0476m  365.7604m  372.8042m 
  126.50000m  544.6550m  193.9092m  365.7570m  372.8073m 
  126.60000m  544.7931m  193.7709m  365.7536m  372.8103m 
  126.70000m  544.9311m  193.6326m  365.7503m  372.8134m 
  126.80000m  545.0692m  193.4942m  365.7469m  372.8165m 
  126.90000m  545.2072m  193.3559m  365.7435m  372.8196m 
  127.00000m  545.3453m  193.2176m  365.7401m  372.8227m 
  127.10000m  545.4833m  193.0792m  365.7368m  372.8258m 
  127.20000m  545.6214m  192.9409m  365.7334m  372.8288m 
  127.30000m  545.7594m  192.8025m  365.7300m  372.8319m 
  127.40000m  545.8974m  192.6642m  365.7266m  372.8350m 
  127.50000m  546.0355m  192.5259m  365.7232m  372.8381m 
  127.60000m  546.1735m  192.3876m  365.7198m  372.8412m 
  127.70000m  546.3115m  192.2492m  365.7164m  372.8443m 
  127.80000m  546.4495m  192.1109m  365.7130m  372.8474m 
  127.90000m  546.5876m  191.9726m  365.7096m  372.8505m 
  128.00000m  546.7256m  191.8342m  365.7062m  372.8536m 
  128.10000m  546.8636m  191.6959m  365.7028m  372.8567m 
  128.20000m  547.0016m  191.5576m  365.6994m  372.8598m 
  128.30000m  547.1396m  191.4193m  365.6960m  372.8629m 
  128.40000m  547.2776m  191.2809m  365.6926m  372.8660m 
  128.50000m  547.4156m  191.1426m  365.6892m  372.8691m 
  128.60000m  547.5536m  191.0043m  365.6858m  372.8722m 
  128.70000m  547.6916m  190.8660m  365.6823m  372.8753m 
  128.80000m  547.8296m  190.7277m  365.6789m  372.8784m 
  128.90000m  547.9676m  190.5894m  365.6755m  372.8815m 
  129.00000m  548.1056m  190.4510m  365.6721m  372.8846m 
  129.10000m  548.2436m  190.3127m  365.6686m  372.8877m 
  129.20000m  548.3816m  190.1744m  365.6652m  372.8908m 
  129.30000m  548.5196m  190.0361m  365.6618m  372.8939m 
  129.40000m  548.6576m  189.8978m  365.6583m  372.8970m 
  129.50000m  548.7955m  189.7595m  365.6549m  372.9001m 
  129.60000m  548.9335m  189.6212m  365.6514m  372.9032m 
  129.70000m  549.0715m  189.4829m  365.6480m  372.9064m 
  129.80000m  549.2095m  189.3446m  365.6445m  372.9095m 
  129.90000m  549.3474m  189.2063m  365.6411m  372.9126m 
  130.00000m  549.4854m  189.0679m  365.6376m  372.9157m 
  130.10000m  549.6234m  188.9296m  365.6342m  372.9188m 
  130.20000m  549.7613m  188.7913m  365.6307m  372.9219m 
  130.30000m  549.8993m  188.6530m  365.6272m  372.9251m 
  130.40000m  550.0372m  188.5147m  365.6238m  372.9282m 
  130.50000m  550.1752m  188.3764m  365.6203m  372.9313m 
  130.60000m  550.3131m  188.2381m  365.6168m  372.9344m 
  130.70000m  550.4511m  188.0999m  365.6133m  372.9376m 
  130.80000m  550.5890m  187.9616m  365.6099m  372.9407m 
  130.90000m  550.7269m  187.8233m  365.6064m  372.9438m 
  131.00000m  550.8649m  187.6850m  365.6029m  372.9469m 
  131.10000m  551.0028m  187.5467m  365.5994m  372.9501m 
  131.20000m  551.1407m  187.4084m  365.5959m  372.9532m 
  131.30000m  551.2787m  187.2701m  365.5924m  372.9563m 
  131.40000m  551.4166m  187.1318m  365.5889m  372.9595m 
  131.50000m  551.5545m  186.9935m  365.5854m  372.9626m 
  131.60000m  551.6924m  186.8552m  365.5819m  372.9657m 
  131.70000m  551.8303m  186.7170m  365.5784m  372.9689m 
  131.80000m  551.9683m  186.5787m  365.5749m  372.9720m 
  131.90000m  552.1062m  186.4404m  365.5714m  372.9752m 
  132.00000m  552.2441m  186.3021m  365.5679m  372.9783m 
  132.10000m  552.3820m  186.1638m  365.5644m  372.9814m 
  132.20000m  552.5199m  186.0256m  365.5608m  372.9846m 
  132.30000m  552.6578m  185.8873m  365.5573m  372.9877m 
  132.40000m  552.7957m  185.7490m  365.5538m  372.9909m 
  132.50000m  552.9335m  185.6107m  365.5503m  372.9940m 
  132.60000m  553.0714m  185.4725m  365.5467m  372.9972m 
  132.70000m  553.2093m  185.3342m  365.5432m  373.0003m 
  132.80000m  553.3472m  185.1959m  365.5396m  373.0035m 
  132.90000m  553.4851m  185.0576m  365.5361m  373.0066m 
  133.00000m  553.6230m  184.9194m  365.5325m  373.0098m 
  133.10000m  553.7608m  184.7811m  365.5290m  373.0129m 
  133.20000m  553.8987m  184.6428m  365.5254m  373.0161m 
  133.30000m  554.0366m  184.5046m  365.5219m  373.0192m 
  133.40000m  554.1744m  184.3663m  365.5183m  373.0224m 
  133.50000m  554.3123m  184.2281m  365.5148m  373.0256m 
  133.60000m  554.4501m  184.0898m  365.5112m  373.0287m 
  133.70000m  554.5880m  183.9515m  365.5076m  373.0319m 
  133.80000m  554.7258m  183.8133m  365.5041m  373.0350m 
  133.90000m  554.8637m  183.6750m  365.5005m  373.0382m 
  134.00000m  555.0015m  183.5368m  365.4969m  373.0414m 
  134.10000m  555.1394m  183.3985m  365.4933m  373.0445m 
  134.20000m  555.2772m  183.2603m  365.4897m  373.0477m 
  134.30000m  555.4150m  183.1220m  365.4861m  373.0509m 
  134.40000m  555.5529m  182.9837m  365.4826m  373.0541m 
  134.50000m  555.6907m  182.8455m  365.4790m  373.0572m 
  134.60000m  555.8285m  182.7073m  365.4754m  373.0604m 
  134.70000m  555.9663m  182.5690m  365.4718m  373.0636m 
  134.80000m  556.1041m  182.4308m  365.4681m  373.0667m 
  134.90000m  556.2419m  182.2925m  365.4645m  373.0699m 
[...]
  469.60000m  700.0000m  113.5906n   35.8853m  664.1148m 
  469.70000m  700.0000m  112.9775n   35.7439m  664.2562m 
  469.80000m  700.0000m  112.3680n   35.6024m  664.3976m 
  469.90000m  700.0000m  111.7619n   35.4610m  664.5391m 
  470.00000m  700.0000m  111.1593n   35.3196m  664.6805m 
  470.10000m  700.0000m  110.5602n   35.1782m  664.8219m 
  470.20000m  700.0000m  109.9646n   35.0368m  664.9633m 
  470.30000m  700.0000m  109.3724n   34.8953m  665.1047m 
  470.40000m  700.0000m  108.7836n   34.7539m  665.2462m 
  470.50000m  700.0000m  108.1982n   34.6125m  665.3876m 
  470.60000m  700.0000m  107.6162n   34.4711m  665.5290m 
  470.70000m  700.0000m  107.0375n   34.3296m  665.6704m 
  470.80000m  700.0000m  106.4621n   34.1882m  665.8119m 
  470.90000m  700.0000m  105.8901n   34.0468m  665.9533m 
  471.00000m  700.0000m  105.3214n   33.9054m  666.0947m 
  471.10000m  700.0000m  104.7559n   33.7640m  666.2361m 
  471.20000m  700.0000m  104.1937n   33.6225m  666.3775m 
  471.30000m  700.0000m  103.6347n   33.4811m  666.5190m 
  471.40000m  700.0000m  103.0789n   33.3397m  666.6604m 
  471.50000m  700.0000m  102.5264n   33.1983m  666.8018m 
  471.60000m  700.0000m  101.9770n   33.0569m  666.9432m 
  471.70000m  700.0000m  101.4308n   32.9154m  667.0846m 
  471.80000m  700.0000m  100.8877n   32.7740m  667.2261m 
  471.90000m  700.0000m  100.3478n   32.6326m  667.3675m 
  472.00000m  700.0000m   99.8110n   32.4912m  667.5089m 
  472.10000m  700.0000m   99.2772n   32.3498m  667.6503m 
  472.20000m  700.0000m   98.7466n   32.2083m  667.7917m 
  472.30000m  700.0000m   98.2189n   32.0669m  667.9332m 
  472.40000m  700.0000m   97.6944n   31.9255m  668.0746m 
  472.50000m  700.0000m   97.1728n   31.7841m  668.2160m 
  472.60000m  700.0000m   96.6542n   31.6426m  668.3574m 
  472.70000m  700.0000m   96.1387n   31.5012m  668.4988m 
  472.80000m  700.0000m   95.6261n   31.3598m  668.6403m 
  472.90000m  700.0000m   95.1164n   31.2184m  668.7817m 
  473.00000m  700.0000m   94.6097n   31.0770m  668.9231m 
  473.10000m  700.0000m   94.1059n   30.9355m  669.0645m 
  473.20000m  700.0000m   93.6050n   30.7941m  669.2060m 
  473.30000m  700.0000m   93.1069n   30.6527m  669.3474m 
  473.40000m  700.0000m   92.6118n   30.5113m  669.4888m 
  473.50000m  700.0000m   92.1195n   30.3699m  669.6302m 
  473.60000m  700.0000m   91.6300n   30.2284m  669.7716m 
  473.70000m  700.0000m   91.1433n   30.0870m  669.9131m 
  473.80000m  700.0000m   90.6594n   29.9456m  670.0545m 
  473.90000m  700.0000m   90.1784n   29.8042m  670.1959m 
  474.00000m  700.0000m   89.7000n   29.6627m  670.3373m 
  474.10000m  700.0000m   89.2245n   29.5213m  670.4787m 
  474.20000m  700.0000m   88.7516n   29.3799m  670.6202m 
  474.30000m  700.0000m   88.2815n   29.2385m  670.7616m 
  474.40000m  700.0000m   87.8141n   29.0971m  670.9030m 
  474.50000m  700.0000m   87.3494n   28.9556m  671.0444m 
  474.60000m  700.0000m   86.8874n   28.8142m  671.1858m 
  474.70000m  700.0000m   86.4280n   28.6728m  671.3273m 
  474.80000m  700.0000m   85.9712n   28.5314m  671.4687m 
  474.90000m  700.0000m   85.5171n   28.3900m  671.6101m 
  475.00000m  700.0000m   85.0656n   28.2485m  671.7515m 
  475.10000m  700.0000m   84.6167n   28.1071m  671.8929m 
  475.20000m  700.0000m   84.1704n   27.9657m  672.0344m 
  475.30000m  700.0000m   83.7266n   27.8243m  672.1758m 
  475.40000m  700.0000m   83.2854n   27.6829m  672.3172m 
  475.50000m  700.0000m   82.8467n   27.5414m  672.4586m 
  475.60000m  700.0000m   82.4105n   27.4000m  672.6001m 
  475.70000m  700.0000m   81.9769n   27.2586m  672.7415m 
  475.80000m  700.0000m   81.5457n   27.1172m  672.8829m 
  475.90000m  700.0000m   81.1171n   26.9757m  673.0243m 
  476.00000m  700.0000m   80.6908n   26.8343m  673.1657m 
  476.10000m  700.0000m   80.2671n   26.6929m  673.3072m 
  476.20000m  700.0000m   79.8457n   26.5515m  673.4486m 
  476.30000m  700.0000m   79.4268n   26.4101m  673.5900m 
  476.40000m  700.0000m   79.0103n   26.2686m  673.7314m 
  476.50000m  700.0000m   78.5962n   26.1272m  673.8728m 
  476.60000m  700.0000m   78.1845n   25.9858m  674.0143m 
  476.70000m  700.0000m   77.7751n   25.8444m  674.1557m 
  476.80000m  700.0000m   77.3681n   25.7030m  674.2971m 
  476.90000m  700.0000m   76.9635n   25.5615m  674.4385m 
  477.00000m  700.0000m   76.5611n   25.4201m  674.5799m 
  477.10000m  700.0000m   76.1611n   25.2787m  674.7214m 
  477.20000m  700.0000m   75.7634n   25.1373m  674.8628m 
  477.30000m  700.0000m   75.3679n   24.9958m  675.0042m 
  477.40000m  700.0000m   74.9747n   24.8544m  675.1456m 
  477.50000m  700.0000m   74.5838n   24.7130m  675.2871m 
  477.60000m  700.0000m   74.1951n   24.5716m  675.4285m 
  477.70000m  700.0000m   73.8087n   24.4302m  675.5699m 
  477.80000m  700.0000m   73.4245n   24.2887m  675.7113m 
  477.90000m  700.0000m   73.0425n   24.1473m  675.8527m 
  478.00000m  700.0000m   72.6626n   24.0059m  675.9942m 
  478.10000m  700.0000m   72.2850n   23.8645m  676.1356m 
  478.20000m  700.0000m   71.9095n   23.7231m  676.2770m 
  478.30000m  700.0000m   71.5362n   23.5816m  676.4184m 
  478.40000m  700.0000m   71.1651n   23.4402m  676.5598m 
  478.50000m  700.0000m   70.7960n   23.2988m  676.7013m 
  478.60000m  700.0000m   70.4291n   23.1574m  676.8427m 
  478.70000m  700.0000m   70.0643n   23.0159m  676.9841m 
  478.80000m  700.0000m   69.7016n   22.8745m  677.1255m 
  478.90000m  700.0000m   69.3409n   22.7331m  677.2669m 
  479.00000m  700.0000m   68.9824n   22.5917m  677.4084m 
  479.10000m  700.0000m   68.6259n   22.4503m  677.5498m 
  479.20000m  700.0000m   68.2714n   22.3088m  677.6912m 
  479.30000m  700.0000m   67.9190n   22.1674m  677.8326m 
  479.40000m  700.0000m   67.5686n   22.0260m  677.9740m 
  479.50000m  700.0000m   67.2202n   21.8846m  678.1155m 
  479.60000m  700.0000m   66.8738n   21.7432m  678.2569m 
  479.70000m  700.0000m   66.5294n   21.6017m  678.3983m 
  479.80000m  700.0000m   66.1870n   21.4603m  678.5397m 
  479.90000m  700.0000m   65.8466n   21.3189m  678.6812m 
  480.00000m  700.0000m   65.5081n   21.1775m  678.8226m 
  480.10000m  700.0000m   65.1715n   21.0361m  678.9640m 
  480.20000m  700.0000m   64.8369n   20.8946m  679.1054m 
  480.30000m  700.0000m   64.5042n   20.7532m  679.2468m 
  480.40000m  700.0000m   64.1734n   20.6118m  679.3883m 
  480.50000m  700.0000m   63.8445n   20.4704m  679.5297m 
  480.60000m  700.0000m   63.5175n   20.3289m  679.6711m 
  480.70000m  700.0000m   63.1924n   20.1875m  679.8125m 
  480.80000m  700.0000m   62.8691n   20.0461m  679.9539m 
  480.90000m  700.0000m   62.5477n   19.9047m  680.0954m 
  481.00000m  700.0000m   62.2281n   19.7633m  680.2368m 
  481.10000m  700.0000m   61.9104n   19.6218m  680.3782m 
  481.20000m  700.0000m   61.5945n   19.4804m  680.5196m 
  481.30000m  700.0000m   61.2804n   19.3390m  680.6610m 
  481.40000m  700.0000m   60.9681n   19.1976m  680.8025m 
  481.50000m  700.0000m   60.6576n   19.0562m  680.9439m 
  481.60000m  700.0000m   60.3489n   18.9147m  681.0853m 
  481.70000m  700.0000m   60.0419n   18.7733m  681.2267m 
  481.80000m  700.0000m   59.7367n   18.6319m  681.3682m 
  481.90000m  700.0000m   59.4333n   18.4905m  681.5096m 
  482.00000m  700.0000m   59.1316n   18.3490m  681.6510m 
  482.10000m  700.0000m   58.8316n   18.2076m  681.7924m 
  482.20000m  700.0000m   58.5334n   18.0662m  681.9338m 
  482.30000m  700.0000m   58.2369n   17.9248m  682.0753m 
  482.40000m  700.0000m   57.9420n   17.7834m  682.2167m 
  482.50000m  700.0000m   57.6489n   17.6419m  682.3581m 
  482.60000m  700.0000m   57.3574n   17.5005m  682.4995m 
  482.70000m  700.0000m   57.0676n   17.3591m  682.6409m 
  482.80000m  700.0000m   56.7795n   17.2177m  682.7824m 
  482.90000m  700.0000m   56.4931n   17.0763m  682.9238m 
  483.00000m  700.0000m   56.2082n   16.9348m  683.0652m 
  483.10000m  700.0000m   55.9250n   16.7934m  683.2066m 
  483.20000m  700.0000m   55.6435n   16.6520m  683.3480m 
  483.30000m  700.0000m   55.3635n   16.5106m  683.4895m 
  483.40000m  700.0000m   55.0851n   16.3691m  683.6309m 
  483.50000m  700.0000m   54.8084n   16.2277m  683.7723m 
  483.60000m  700.0000m   54.5332n   16.0863m  683.9137m 
  483.70000m  700.0000m   54.2596n   15.9449m  684.0552m 
  483.80000m  700.0000m   53.9876n   15.8035m  684.1966m 
  483.90000m  700.0000m   53.7172n   15.6620m  684.3380m 
  484.00000m  700.0000m   53.4482n   15.5206m  684.4794m 
  484.10000m  700.0000m   53.1809n   15.3792m  684.6208m 
  484.20000m  700.0000m   52.9150n   15.2378m  684.7623m 
  484.30000m  700.0000m   52.6507n   15.0964m  684.9037m 
  484.40000m  700.0000m   52.3879n   14.9549m  685.0451m 
  484.50000m  700.0000m   52.1267n   14.8135m  685.1865m 
  484.60000m  700.0000m   51.8669n   14.6721m  685.3279m 
  484.70000m  700.0000m   51.6086n   14.5307m  685.4694m 
  484.80000m  700.0000m   51.3517n   14.3893m  685.6108m 
  484.90000m  700.0000m   51.0964n   14.2478m  685.7522m 
  485.00000m  700.0000m   50.8425n   14.1064m  685.8936m 
  485.10000m  700.0000m   50.5901n   13.9650m  686.0350m 
  485.20000m  700.0000m   50.3391n   13.8236m  686.1765m 
  485.30000m  700.0000m   50.0896n   13.6821m  686.3179m 
  485.40000m  700.0000m   49.8415n   13.5407m  686.4593m 
  485.50000m  700.0000m   49.5948n   13.3993m  686.6007m 
  485.60000m  700.0000m   49.3495n   13.2579m  686.7422m 
  485.70000m  700.0000m   49.1056n   13.1165m  686.8836m 
  485.80000m  700.0000m   48.8631n   12.9750m  687.0250m 
  485.90000m  700.0000m   48.6221n   12.8336m  687.1664m 
  486.00000m  700.0000m   48.3824n   12.6922m  687.3078m 
  486.10000m  700.0000m   48.1440n   12.5508m  687.4493m 
  486.20000m  700.0000m   47.9071n   12.4094m  687.5907m 
  486.30000m  700.0000m   47.6715n   12.2679m  687.7321m 
  486.40000m  700.0000m   47.4372n   12.1265m  687.8735m 
  486.50000m  700.0000m   47.2043n   11.9851m  688.0149m 
  486.60000m  700.0000m   46.9727n   11.8437m  688.1564m 
  486.70000m  700.0000m   46.7425n   11.7022m  688.2978m 
  486.80000m  700.0000m   46.5136n   11.5608m  688.4392m 
  486.90000m  700.0000m   46.2860n   11.4194m  688.5806m 
  487.00000m  700.0000m   46.0596n   11.2780m  688.7221m 
  487.10000m  700.0000m   45.8346n   11.1366m  688.8635m 
  487.20000m  700.0000m   45.6109n   10.9951m  689.0049m 
  487.30000m  700.0000m   45.3885n   10.8537m  689.1463m 
  487.40000m  700.0000m   45.1673n   10.7123m  689.2877m 
  487.50000m  700.0000m   44.9474n   10.5709m  689.4292m 
  487.60000m  700.0000m   44.7288n   10.4295m  689.5706m 
  487.70000m  700.0000m   44.5114n   10.2880m  689.7120m 
  487.80000m  700.0000m   44.2952n   10.1466m  689.8534m 
  487.90000m  700.0000m   44.0803n   10.0052m  689.9948m 
  488.00000m  700.0000m   43.8666n    9.8638m  690.1363m 
  488.10000m  700.0000m   43.6542n    9.7223m  690.2777m 
  488.20000m  700.0000m   43.4430n    9.5809m  690.4191m 
  488.30000m  700.0000m   43.2329n    9.4395m  690.5605m 
  488.40000m  700.0000m   43.0241n    9.2981m  690.7019m 
  488.50000m  700.0000m   42.8165n    9.1567m  690.8434m 
  488.60000m  700.0000m   42.6101n    9.0152m  690.9848m 
  488.70000m  700.0000m   42.4048n    8.8738m  691.1262m 
  488.80000m  700.0000m   42.2007n    8.7324m  691.2676m 
  488.90000m  700.0000m   41.9978n    8.5910m  691.4091m 
  489.00000m  700.0000m   41.7961n    8.4496m  691.5505m 
  489.10000m  700.0000m   41.5955n    8.3081m  691.6919m 
  489.20000m  700.0000m   41.3961n    8.1667m  691.8333m 
  489.30000m  700.0000m   41.1978n    8.0253m  691.9747m 
  489.40000m  700.0000m   41.0006n    7.8839m  692.1162m 
  489.50000m  700.0000m   40.8046n    7.7425m  692.2576m 
  489.60000m  700.0000m   40.6097n    7.6010m  692.3990m 
  489.70000m  700.0000m   40.4159n    7.4596m  692.5404m 
  489.80000m  700.0000m   40.2232n    7.3182m  692.6818m 
  489.90000m  700.0000m   40.0316n    7.1768m  692.8233m 
  490.00000m  700.0000m   39.8412n    7.0353m  692.9647m 
  490.10000m  700.0000m   39.6518n    6.8939m  693.1061m 
  490.20000m  700.0000m   39.4635n    6.7525m  693.2475m 
  490.30000m  700.0000m   39.2762n    6.6111m  693.3889m 
  490.40000m  700.0000m   39.0901n    6.4697m  693.5304m 
  490.50000m  700.0000m   38.9050n    6.3282m  693.6718m 
  490.60000m  700.0000m   38.7210n    6.1868m  693.8132m 
  490.70000m  700.0000m   38.5380n    6.0454m  693.9546m 
  490.80000m  700.0000m   38.3561n    5.9040m  694.0961m 
  490.90000m  700.0000m   38.1752n    5.7626m  694.2375m 
  491.00000m  700.0000m   37.9954n    5.6211m  694.3789m 
  491.10000m  700.0000m   37.8165n    5.4797m  694.5203m 
  491.20000m  700.0000m   37.6388n    5.3383m  694.6617m 
  491.30000m  700.0000m   37.4620n    5.1969m  694.8032m 
  491.40000m  700.0000m   37.2862n    5.0554m  694.9446m 
  491.50000m  700.0000m   37.1115n    4.9140m  695.0860m 
  491.60000m  700.0000m   36.9377n    4.7726m  695.2274m 
  491.70000m  700.0000m   36.7650n    4.6312m  695.3688m 
  491.80000m  700.0000m   36.5932n    4.4898m  695.5103m 
  491.90000m  700.0000m   36.4224n    4.3483m  695.6517m 
  492.00000m  700.0000m   36.2526n    4.2069m  695.7931m 
  492.10000m  700.0000m   36.0838n    4.0655m  695.9345m 
  492.20000m  700.0000m   35.9159n    3.9241m  696.0760m 
  492.30000m  700.0000m   35.7490n    3.7827m  696.2174m 
  492.40000m  700.0000m   35.5830n    3.6412m  696.3588m 
  492.50000m  700.0000m   35.4180n    3.4998m  696.5002m 
  492.60000m  700.0000m   35.2540n    3.3584m  696.6416m 
  492.70000m  700.0000m   35.0909n    3.2170m  696.7831m 
  492.80000m  700.0000m   34.9287n    3.0755m  696.9245m 
  492.90000m  700.0000m   34.7674n    2.9341m  697.0659m 
  493.00000m  700.0000m   34.6071n    2.7927m  697.2073m 
  493.10000m  700.0000m   34.4477n    2.6513m  697.3487m 
  493.20000m  700.0000m   34.2892n    2.5099m  697.4902m 
  493.30000m  700.0000m   34.1316n    2.3684m  697.6316m 
  493.40000m  700.0000m   33.9749n    2.2270m  697.7730m 
  493.50000m  700.0000m   33.8191n    2.0856m  697.9144m 
  493.60000m  700.0000m   33.6642n    1.9442m  698.0558m 
  493.70000m  700.0000m   33.5102n    1.8028m  698.1973m 
  493.80000m  700.0000m   33.3571n    1.6613m  698.3387m 
  493.90000m  700.0000m   33.2048n    1.5199m  698.4801m 
  494.00000m  700.0000m   33.0534n    1.3785m  698.6215m 
  494.10000m  700.0000m   32.9029n    1.2371m  698.7630m 
  494.20000m  700.0000m   32.7533n    1.0956m  698.9044m 
  494.30000m  700.0000m   32.6045n  954.2270u  699.0458m 
  494.40000m  700.0000m   32.4565n  812.8056u  699.1872m 
  494.50000m  700.0000m   32.3094n  671.3843u  699.3286m 
  494.60000m  700.0000m   32.1632n  529.9630u  699.4701m 
  494.70000m  700.0000m   32.0178n  388.5417u  699.6115m 
  494.80000m  700.0000m   31.8732n  247.1203u  699.7529m 
  494.90000m  700.0000m   31.7294n  105.6990u  699.8943m 
y
 cross_point=   0.        
 max_1=   0.            at=   0.        
             from=   0.            to=   0.        
 max_2=   0.            at=   0.        
             from=   0.            to=   0.        
 snm=   0.        
1****** HSPICE -- Q-2020.03-SP2-2 linux64 (Nov  1 2020) ******                  
 ******  
 .title noise margin in hold operation

 ****** operating point information tnom=  25.000 temp=  25.000 ******
 ****** operating point status is all       simulation time is     0.     
    node    =voltage      node    =voltage      node    =voltage

 +0:bl      = 700.0000m 0:blb     = 700.0000m 0:gl      = 369.3009m
 +0:gr      = 369.3009m 0:q       = 369.3009m 0:qb      = 369.3009m
 +0:u       =   0.      0:v1      = 522.2703m 0:v2      = 522.2703m
 +0:vdd     = 700.0000m 0:wl      =   0.      0:x       = 658.1762m


 **** voltage sources

 subckt                                   
 element  0:vu       0:vvdd     0:vwl     
  volts      0.       700.0000m    0.     
  current    0.      -998.3374n  305.0209f
  power      0.       698.8361n    0.     

     total voltage source power dissipation=  698.8361n       watts



 **** voltage-controlled voltage sources


 subckt                                              
 element  0:eli      0:ev1      0:eri      0:ev2     
  volts    369.3009m  522.2703m  369.3009m  522.2703m
  current   16.1798f    0.        16.1798f    0.     





 **** mosfets


 subckt                                                                    
 element  0:mpr      0:mnr      0:mpl      0:mnl      0:mnpr     0:mnpl    
 model    0:pmos_sra 0:nmos_sra 0:pmos_sra 0:nmos_sra 0:nmos_sra 0:nmos_sra
 region   Subth      Subth      Subth      Subth      Cutoff     Cutoff    
  id      -499.1686n  499.1686n -499.1686n  499.1686n  938.2452a  938.2452a
  ibs        0.         0.         0.         0.         0.         0.     
  ibd        0.         0.         0.         0.         0.         0.     
  vgs     -330.6991m  369.3009m -330.6991m  369.3009m -369.3009m -369.3009m
  vds     -330.6991m  369.3009m -330.6991m  369.3009m  330.6991m  330.6991m
  vbs      -41.8238m  658.1762m  -41.8238m  658.1762m  288.8753m  288.8753m
  vth     -334.7549m  408.4973m -334.7549m  408.4973m  408.7099m  408.7099m
  vdsat    -95.5226m   79.1197m  -95.5226m   79.1197m   70.6690m   70.6690m
  vod        4.0558m  -39.1964m    4.0558m  -39.1964m -778.0108m -778.0108m
  beta       1.6413m    2.1736m    1.6413m    2.1736m    2.1736m    2.1736m
  gam eff    0.         0.         0.         0.         0.         0.     
  gm        12.9907u   15.3998u   12.9907u   15.3998u  8.590e-21  8.590e-21
  gds      301.4608n  239.6269n  301.4608n  239.6269n  228.2566a  228.2566a
  gmb        4.8922p   12.0124p    4.8922p   12.0124p  1.316e-20  1.316e-20
  cdtot     10.1750a   10.2205a   10.1750a   10.2205a   10.2225a   10.2225a
  cgtot     31.2784a   26.1428a   31.2784a   26.1428a   20.4450a   20.4450a
  cstot     17.2863a   14.0661a   17.2863a   14.0661a   10.2225a   10.2225a
  cbtot      0.         0.         0.         0.         0.         0.     
  cgs       21.2138a   15.9421a   21.2138a   15.9421a   10.2225a   10.2225a
  cgd       10.0646a   10.2007a   10.0646a   10.2007a   10.2225a   10.2225a




          ***** job concluded
 ******  
 .title noise margin in hold operation

 ****** job statistics summary tnom=  25.000 temp=  25.000 ******
  
 ******  Machine Information  ******
 CPU:
 model name	: AMD EPYC 7713 64-Core Processor
 cpu MHz	: 2000.000
  
 OS:
 Linux version 3.10.0-1160.88.1.el7.x86_64 (mockbuild@kbuilder.bsys.centos.org) (gcc version 4.8.5 20150623 (Red Hat 4.8.5-44) (GCC) ) #1 SMP Tue Mar 7 15:41:52 UTC 2023


  ******  HSPICE Threads Information  ******

  Command Line Threads Count :     1
  Available CPU Count        :   256
  Actual Threads Count       :     1


  ******  Circuit Statistics  ******
  # nodes       =      13 # elements   =      15
  # resistors   =       0 # capacitors =       2 # inductors   =       0
  # mutual_inds =       0 # vccs       =       0 # vcvs        =       4
  # cccs        =       0 # ccvs       =       0 # volt_srcs   =       3
  # curr_srcs   =       0 # diodes     =       0 # bjts        =       0
  # jfets       =       0 # mosfets    =       6 # U elements  =       0
  # T elements  =       0 # W elements =       0 # B elements  =       0
  # S elements  =       0 # P elements =       0 # va device   =       0
  # vector_srcs =       0 # N elements =       0


  ******  Runtime Statistics (seconds)  ******

  analysis           time    # points   tot. iter  conv.iter
  op point           0.01           1          10
  dc sweep           0.41        4950       14857
  readin             0.01
  errchk             0.01
  setup              0.00
  output             0.00


           peak memory used        406.18 megabytes
           total cpu time            0.48 seconds
           total elapsed time        0.65 seconds
           job started at     22:13:46 03/19/2025
           job ended   at     22:13:47 03/19/2025
           job total runtime         0.65 seconds


 lic: Release hspice token(s) 
 lic: total license checkout elapse time:        0.16(s)
