 ****** HSPICE -- Q-2020.03-SP2-2 linux64 (Nov  1 2020) ******                  
  Copyright (c) 1986 - 2025 by Synopsys, Inc. All Rights Reserved.              
  This software and the associated documentation are proprietary
  to Synopsys, Inc. This software may only be used in accordance
  with the terms and conditions of a written license agreement with
  Synopsys, Inc. All other use, reproduction, or distribution of
  this software is strictly prohibited.
  Input File: SRAM_WNM_TT.sp                                                    
  Command line options: /RAID2/cad/synopsys/hspice/2020.03-sp2-2/hspice/linux64/hspice -i SRAM_WNM_TT.sp -o SRAM_WNM_TT.lis
  Start time: Sun Mar 23 17:33:32 2025
 lic:  
 lic: FLEXlm: SDK_12.6 
 lic: USER:   es25MCS042           HOSTNAME: ee28 
 lic: HOSTID: "d85ed3efc19a"       PID:      183586 
 lic: Using FLEXlm license file: 
 lic: 26585@lshc 
 lic: Checkout 1 hspice 
 lic: License/Maintenance for hspice will expire on 14-may-2025/2024.09 
 lic: 188(in_use)/1100(total) FLOATING license(s) on SERVER 26585@lshc 
 lic:   
  **warning** (SRAM_WNM_TT.sp:60) Unable to find referenced node gr; Output variable ignored. Specify a valid node.
  
      
             
 Warning:'Floating bulk' occurs 1 times
 Summary of floating bulk:
 -----------------------
 |Node      |Device    |
 |----------+----------|
 |x         |mpr       |
 -----------------------
              
 **info** set option symb=1 internally to help for convergence.
 *****************************************************************
 ******  option summary
 ******
 runlvl  = 3         bypass  = 2.0000    
 ******
 .title write noise margin

 ****** dc transfer curves tnom=  25.000 temp=  25.000 ******
x

 vnoise       voltage    voltage    voltage   
             q          qb         gl         
    0.         14.5522n  700.0000m    0.      
  100.00000u   14.5522n  700.0000m  100.0000u 
  200.00000u   14.5522n  700.0000m  200.0000u 
  300.00000u   14.5522n  700.0000m  300.0000u 
  400.00000u   14.5522n  700.0000m  400.0000u 
  500.00000u   14.5522n  700.0000m  500.0000u 
  600.00000u   14.5522n  700.0000m  600.0000u 
  700.00000u   14.5522n  700.0000m  700.0000u 
  800.00000u   14.5522n  700.0000m  800.0000u 
  900.00000u   14.5522n  700.0000m  900.0000u 
    1.00000m   14.5522n  700.0000m    1.0000m 
    1.10000m   14.5522n  700.0000m    1.1000m 
    1.20000m   14.5522n  700.0000m    1.2000m 
    1.30000m   14.5522n  700.0000m    1.3000m 
    1.40000m   14.5522n  700.0000m    1.4000m 
    1.50000m   14.5522n  700.0000m    1.5000m 
    1.60000m   14.5522n  700.0000m    1.6000m 
    1.70000m   14.5522n  700.0000m    1.7000m 
    1.80000m   14.5522n  700.0000m    1.8000m 
    1.90000m   14.5522n  700.0000m    1.9000m 
    2.00000m   14.5522n  700.0000m    2.0000m 
    2.10000m   14.5522n  700.0000m    2.1000m 
    2.20000m   14.5522n  700.0000m    2.2000m 
    2.30000m   14.5522n  700.0000m    2.3000m 
    2.40000m   14.5522n  700.0000m    2.4000m 
    2.50000m   14.5522n  700.0000m    2.5000m 
    2.60000m   14.5522n  700.0000m    2.6000m 
    2.70000m   14.5522n  700.0000m    2.7000m 
    2.80000m   14.5522n  700.0000m    2.8000m 
    2.90000m   14.5522n  700.0000m    2.9000m 
    3.00000m   14.5522n  700.0000m    3.0000m 
    3.10000m   14.5522n  700.0000m    3.1000m 
    3.20000m   14.5522n  700.0000m    3.2000m 
    3.30000m   14.5522n  700.0000m    3.3000m 
    3.40000m   14.5522n  700.0000m    3.4000m 
    3.50000m   14.5522n  700.0000m    3.5000m 
    3.60000m   14.5522n  700.0000m    3.6000m 
    3.70000m   14.5522n  700.0000m    3.7000m 
    3.80000m   14.5522n  700.0000m    3.8000m 
    3.90000m   14.5522n  700.0000m    3.9000m 
    4.00000m   14.5522n  700.0000m    4.0000m 
    4.10000m   14.5522n  700.0000m    4.1000m 
    4.20000m   14.5522n  700.0000m    4.2000m 
    4.30000m   14.5522n  700.0000m    4.3000m 
    4.40000m   14.5522n  700.0000m    4.4000m 
    4.50000m   14.5522n  700.0000m    4.5000m 
    4.60000m   14.5522n  700.0000m    4.6000m 
    4.70000m   14.5522n  700.0000m    4.7000m 
    4.80000m   14.5522n  700.0000m    4.8000m 
    4.90000m   14.5522n  700.0000m    4.9000m 
    5.00000m   14.5522n  700.0000m    5.0000m 
    5.10000m   14.5522n  700.0000m    5.1000m 
    5.20000m   14.5522n  700.0000m    5.2000m 
    5.30000m   14.5522n  700.0000m    5.3000m 
    5.40000m   14.5522n  700.0000m    5.4000m 
    5.50000m   14.5522n  700.0000m    5.5000m 
    5.60000m   14.5522n  700.0000m    5.6000m 
    5.70000m   14.5522n  700.0000m    5.7000m 
    5.80000m   14.5522n  700.0000m    5.8000m 
    5.90000m   14.5522n  700.0000m    5.9000m 
    6.00000m   14.5522n  700.0000m    6.0000m 
    6.10000m   14.5522n  700.0000m    6.1000m 
    6.20000m   14.5522n  700.0000m    6.2000m 
    6.30000m   14.5522n  700.0000m    6.3000m 
    6.40000m   14.5522n  700.0000m    6.4000m 
    6.50000m   14.5522n  700.0000m    6.5000m 
    6.60000m   14.5522n  700.0000m    6.6000m 
    6.70000m   14.5522n  700.0000m    6.7000m 
    6.80000m   14.5522n  700.0000m    6.8000m 
    6.90000m   14.5522n  700.0000m    6.9000m 
    7.00000m   14.5522n  700.0000m    7.0000m 
    7.10000m   14.5522n  700.0000m    7.1000m 
    7.20000m   14.5522n  700.0000m    7.2000m 
    7.30000m   14.5522n  700.0000m    7.3000m 
    7.40000m   14.5522n  700.0000m    7.4000m 
    7.50000m   14.5522n  700.0000m    7.5000m 
    7.60000m   14.5522n  700.0000m    7.6000m 
    7.70000m   14.5522n  700.0000m    7.7000m 
    7.80000m   14.5522n  700.0000m    7.8000m 
    7.90000m   14.5522n  700.0000m    7.9000m 
    8.00000m   14.5522n  700.0000m    8.0000m 
    8.10000m   14.5522n  700.0000m    8.1000m 
    8.20000m   14.5522n  700.0000m    8.2000m 
    8.30000m   14.5522n  700.0000m    8.3000m 
    8.40000m   14.5522n  700.0000m    8.4000m 
    8.50000m   14.5522n  700.0000m    8.5000m 
    8.60000m   14.5522n  700.0000m    8.6000m 
    8.70000m   14.5522n  700.0000m    8.7000m 
    8.80000m   14.5522n  700.0000m    8.8000m 
    8.90000m   14.5522n  700.0000m    8.9000m 
    9.00000m   14.5522n  700.0000m    9.0000m 
    9.10000m   14.5522n  700.0000m    9.1000m 
    9.20000m   14.5522n  700.0000m    9.2000m 
    9.30000m   14.5522n  700.0000m    9.3000m 
    9.40000m   14.5522n  700.0000m    9.4000m 
    9.50000m   14.5522n  700.0000m    9.5000m 
    9.60000m   14.5522n  700.0000m    9.6000m 
    9.70000m   14.5522n  700.0000m    9.7000m 
    9.80000m   14.5522n  700.0000m    9.8000m 
    9.90000m   14.5522n  700.0000m    9.9000m 
   10.00000m   14.5522n  700.0000m   10.0000m 
   10.10000m   14.5522n  700.0000m   10.1000m 
   10.20000m   14.5522n  700.0000m   10.2000m 
   10.30000m   14.5522n  700.0000m   10.3000m 
   10.40000m   14.5522n  700.0000m   10.4000m 
   10.50000m   14.5522n  700.0000m   10.5000m 
   10.60000m   14.5522n  700.0000m   10.6000m 
   10.70000m   14.5522n  700.0000m   10.7000m 
   10.80000m   14.5522n  700.0000m   10.8000m 
   10.90000m   14.5522n  700.0000m   10.9000m 
   11.00000m   14.5522n  700.0000m   11.0000m 
   11.10000m   14.5522n  700.0000m   11.1000m 
   11.20000m   14.5522n  700.0000m   11.2000m 
   11.30000m   14.5522n  700.0000m   11.3000m 
   11.40000m   14.5522n  700.0000m   11.4000m 
   11.50000m   14.5522n  700.0000m   11.5000m 
   11.60000m   14.5522n  700.0000m   11.6000m 
   11.70000m   14.5522n  700.0000m   11.7000m 
   11.80000m   14.5522n  700.0000m   11.8000m 
   11.90000m   14.5522n  700.0000m   11.9000m 
   12.00000m   14.5522n  700.0000m   12.0000m 
   12.10000m   14.5522n  700.0000m   12.1000m 
   12.20000m   14.5522n  700.0000m   12.2000m 
   12.30000m   14.5522n  700.0000m   12.3000m 
   12.40000m   14.5522n  700.0000m   12.4000m 
   12.50000m   14.5522n  700.0000m   12.5000m 
   12.60000m   14.5522n  700.0000m   12.6000m 
   12.70000m   14.5522n  700.0000m   12.7000m 
   12.80000m   14.5522n  700.0000m   12.8000m 
   12.90000m   14.5522n  700.0000m   12.9000m 
   13.00000m   14.5522n  700.0000m   13.0000m 
   13.10000m   14.5522n  700.0000m   13.1000m 
   13.20000m   14.5522n  700.0000m   13.2000m 
   13.30000m   14.5522n  700.0000m   13.3000m 
   13.40000m   14.5522n  700.0000m   13.4000m 
   13.50000m   14.5522n  700.0000m   13.5000m 
   13.60000m   14.5522n  700.0000m   13.6000m 
   13.70000m   14.5522n  700.0000m   13.7000m 
   13.80000m   14.5522n  700.0000m   13.8000m 
   13.90000m   14.5522n  700.0000m   13.9000m 
   14.00000m   14.5522n  700.0000m   14.0000m 
   14.10000m   14.5522n  700.0000m   14.1000m 
   14.20000m   14.5522n  700.0000m   14.2000m 
   14.30000m   14.5522n  700.0000m   14.3000m 
   14.40000m   14.5522n  700.0000m   14.4000m 
   14.50000m   14.5522n  700.0000m   14.5000m 
   14.60000m   14.5522n  700.0000m   14.6000m 
   14.70000m   14.5522n  700.0000m   14.7000m 
   14.80000m   14.5522n  700.0000m   14.8000m 
   14.90000m   14.5522n  700.0000m   14.9000m 
   15.00000m   14.5522n  700.0000m   15.0000m 
   15.10000m   14.5522n  700.0000m   15.1000m 
   15.20000m   14.5522n  700.0000m   15.2000m 
   15.30000m   14.5522n  700.0000m   15.3000m 
   15.40000m   14.5522n  700.0000m   15.4000m 
   15.50000m   14.5522n  700.0000m   15.5000m 
   15.60000m   14.5522n  700.0000m   15.6000m 
   15.70000m   14.5522n  700.0000m   15.7000m 
   15.80000m   14.5522n  700.0000m   15.8000m 
   15.90000m   14.5522n  700.0000m   15.9000m 
   16.00000m   14.5522n  700.0000m   16.0000m 
   16.10000m   14.5522n  700.0000m   16.1000m 
   16.20000m   14.5522n  700.0000m   16.2000m 
   16.30000m   14.5522n  700.0000m   16.3000m 
   16.40000m   14.5522n  700.0000m   16.4000m 
   16.50000m   14.5522n  700.0000m   16.5000m 
   16.60000m   14.5522n  700.0000m   16.6000m 
   16.70000m   14.5522n  700.0000m   16.7000m 
   16.80000m   14.5522n  700.0000m   16.8000m 
   16.90000m   14.5522n  700.0000m   16.9000m 
   17.00000m   14.5522n  700.0000m   17.0000m 
   17.10000m   14.5522n  700.0000m   17.1000m 
   17.20000m   14.5522n  700.0000m   17.2000m 
   17.30000m   14.5522n  700.0000m   17.3000m 
   17.40000m   14.5522n  700.0000m   17.4000m 
   17.50000m   14.5522n  700.0000m   17.5000m 
   17.60000m   14.5522n  700.0000m   17.6000m 
   17.70000m   14.5522n  700.0000m   17.7000m 
   17.80000m   14.5522n  700.0000m   17.8000m 
   17.90000m   14.5522n  700.0000m   17.9000m 
   18.00000m   14.5522n  700.0000m   18.0000m 
   18.10000m   14.5522n  700.0000m   18.1000m 
   18.20000m   14.5522n  700.0000m   18.2000m 
   18.30000m   14.5522n  700.0000m   18.3000m 
   18.40000m   14.5522n  700.0000m   18.4000m 
   18.50000m   14.5522n  700.0000m   18.5000m 
   18.60000m   14.5522n  700.0000m   18.6000m 
   18.70000m   14.5522n  700.0000m   18.7000m 
   18.80000m   14.5522n  700.0000m   18.8000m 
   18.90000m   14.5522n  700.0000m   18.9000m 
   19.00000m   14.5522n  700.0000m   19.0000m 
   19.10000m   14.5522n  700.0000m   19.1000m 
   19.20000m   14.5522n  700.0000m   19.2000m 
   19.30000m   14.5522n  700.0000m   19.3000m 
   19.40000m   14.5522n  700.0000m   19.4000m 
   19.50000m   14.5522n  700.0000m   19.5000m 
   19.60000m   14.5522n  700.0000m   19.6000m 
   19.70000m   14.5522n  700.0000m   19.7000m 
   19.80000m   14.5522n  700.0000m   19.8000m 
   19.90000m   14.5522n  700.0000m   19.9000m 
   20.00000m   14.5522n  700.0000m   20.0000m 
   20.10000m   14.5522n  700.0000m   20.1000m 
   20.20000m   14.5522n  700.0000m   20.2000m 
   20.30000m   14.5522n  700.0000m   20.3000m 
   20.40000m   14.5522n  700.0000m   20.4000m 
   20.50000m   14.5522n  700.0000m   20.5000m 
   20.60000m   14.5522n  700.0000m   20.6000m 
   20.70000m   14.5522n  700.0000m   20.7000m 
   20.80000m   14.5522n  700.0000m   20.8000m 
   20.90000m   14.5522n  700.0000m   20.9000m 
   21.00000m   14.5522n  700.0000m   21.0000m 
   21.10000m   14.5522n  700.0000m   21.1000m 
   21.20000m   14.5522n  700.0000m   21.2000m 
   21.30000m   14.5522n  700.0000m   21.3000m 
   21.40000m   14.5522n  700.0000m   21.4000m 
   21.50000m   14.5522n  700.0000m   21.5000m 
   21.60000m   14.5522n  700.0000m   21.6000m 
   21.70000m   14.5522n  700.0000m   21.7000m 
   21.80000m   14.5522n  700.0000m   21.8000m 
   21.90000m   14.5522n  700.0000m   21.9000m 
   22.00000m   14.5522n  700.0000m   22.0000m 
   22.10000m   14.5522n  700.0000m   22.1000m 
   22.20000m   14.5522n  700.0000m   22.2000m 
   22.30000m   14.5522n  700.0000m   22.3000m 
   22.40000m   14.5522n  700.0000m   22.4000m 
   22.50000m   14.5522n  700.0000m   22.5000m 
   22.60000m   14.5522n  700.0000m   22.6000m 
   22.70000m   14.5522n  700.0000m   22.7000m 
   22.80000m   14.5522n  700.0000m   22.8000m 
   22.90000m   14.5522n  700.0000m   22.9000m 
   23.00000m   14.5522n  700.0000m   23.0000m 
   23.10000m   14.5522n  700.0000m   23.1000m 
   23.20000m   14.5522n  700.0000m   23.2000m 
   23.30000m   14.5522n  700.0000m   23.3000m 
   23.40000m   14.5522n  700.0000m   23.4000m 
   23.50000m   14.5522n  700.0000m   23.5000m 
   23.60000m   14.5522n  700.0000m   23.6000m 
   23.70000m   14.5522n  700.0000m   23.7000m 
   23.80000m   14.5522n  700.0000m   23.8000m 
   23.90000m   14.5522n  700.0000m   23.9000m 
   24.00000m   14.5522n  700.0000m   24.0000m 
   24.10000m   14.5522n  700.0000m   24.1000m 
   24.20000m   14.5522n  700.0000m   24.2000m 
   24.30000m   14.5522n  700.0000m   24.3000m 
   24.40000m   14.5522n  700.0000m   24.4000m 
   24.50000m   14.5522n  700.0000m   24.5000m 
   24.60000m   14.5522n  700.0000m   24.6000m 
   24.70000m   14.5522n  700.0000m   24.7000m 
   24.80000m   14.5522n  700.0000m   24.8000m 
   24.90000m   14.5522n  700.0000m   24.9000m 
   25.00000m   14.5522n  700.0000m   25.0000m 
   25.10000m   14.5522n  700.0000m   25.1000m 
   25.20000m   14.5522n  700.0000m   25.2000m 
   25.30000m   14.5522n  700.0000m   25.3000m 
   25.40000m   14.5522n  700.0000m   25.4000m 
   25.50000m   14.5522n  700.0000m   25.5000m 
   25.60000m   14.5522n  700.0000m   25.6000m 
   25.70000m   14.5522n  700.0000m   25.7000m 
   25.80000m   14.5522n  700.0000m   25.8000m 
   25.90000m   14.5522n  700.0000m   25.9000m 
   26.00000m   14.5522n  700.0000m   26.0000m 
   26.10000m   14.5522n  700.0000m   26.1000m 
   26.20000m   14.5522n  700.0000m   26.2000m 
   26.30000m   14.5522n  700.0000m   26.3000m 
   26.40000m   14.5522n  700.0000m   26.4000m 
   26.50000m   14.5522n  700.0000m   26.5000m 
   26.60000m   14.5522n  700.0000m   26.6000m 
   26.70000m   14.5522n  700.0000m   26.7000m 
   26.80000m   14.5522n  700.0000m   26.8000m 
   26.90000m   14.5522n  700.0000m   26.9000m 
   27.00000m   14.5522n  700.0000m   27.0000m 
   27.10000m   14.5522n  700.0000m   27.1000m 
   27.20000m   14.5522n  700.0000m   27.2000m 
   27.30000m   14.5522n  700.0000m   27.3000m 
   27.40000m   14.5522n  700.0000m   27.4000m 
   27.50000m   14.5522n  700.0000m   27.5000m 
   27.60000m   14.5522n  700.0000m   27.6000m 
   27.70000m   14.5522n  700.0000m   27.7000m 
   27.80000m   14.5522n  700.0000m   27.8000m 
   27.90000m   14.5522n  700.0000m   27.9000m 
   28.00000m   14.5522n  700.0000m   28.0000m 
   28.10000m   14.5522n  700.0000m   28.1000m 
   28.20000m   14.5522n  700.0000m   28.2000m 
   28.30000m   14.5522n  700.0000m   28.3000m 
   28.40000m   14.5522n  700.0000m   28.4000m 
   28.50000m   14.5522n  700.0000m   28.5000m 
   28.60000m   14.5522n  700.0000m   28.6000m 
   28.70000m   14.5522n  700.0000m   28.7000m 
   28.80000m   14.5522n  700.0000m   28.8000m 
   28.90000m   14.5522n  700.0000m   28.9000m 
   29.00000m   14.5522n  700.0000m   29.0000m 
   29.10000m   14.5522n  700.0000m   29.1000m 
   29.20000m   14.5522n  700.0000m   29.2000m 
   29.30000m   14.5522n  700.0000m   29.3000m 
   29.40000m   14.5522n  700.0000m   29.4000m 
   29.50000m   14.5522n  700.0000m   29.5000m 
   29.60000m   14.5522n  700.0000m   29.6000m 
   29.70000m   14.5522n  700.0000m   29.7000m 
   29.80000m   14.5522n  700.0000m   29.8000m 
   29.90000m   14.5522n  700.0000m   29.9000m 
   30.00000m   14.5522n  700.0000m   30.0000m 
   30.10000m   14.5522n  700.0000m   30.1000m 
   30.20000m   14.5522n  700.0000m   30.2000m 
   30.30000m   14.5522n  700.0000m   30.3000m 
   30.40000m   14.5522n  700.0000m   30.4000m 
   30.50000m   14.5522n  700.0000m   30.5000m 
   30.60000m   14.5522n  700.0000m   30.6000m 
   30.70000m   14.5522n  700.0000m   30.7000m 
   30.80000m   14.5522n  700.0000m   30.8000m 
   30.90000m   14.5522n  700.0000m   30.9000m 
   31.00000m   14.5522n  700.0000m   31.0000m 
   31.10000m   14.5522n  700.0000m   31.1000m 
   31.20000m   14.5522n  700.0000m   31.2000m 
   31.30000m   14.5522n  700.0000m   31.3000m 
   31.40000m   14.5522n  700.0000m   31.4000m 
   31.50000m   14.5522n  700.0000m   31.5000m 
   31.60000m   14.5522n  700.0000m   31.6000m 
   31.70000m   14.5522n  700.0000m   31.7000m 
   31.80000m   14.5522n  700.0000m   31.8000m 
   31.90000m   14.5522n  700.0000m   31.9000m 
   32.00000m   14.5522n  700.0000m   32.0000m 
   32.10000m   14.5522n  700.0000m   32.1000m 
   32.20000m   14.5522n  700.0000m   32.2000m 
   32.30000m   14.5522n  700.0000m   32.3000m 
   32.40000m   14.5522n  700.0000m   32.4000m 
   32.50000m   14.5522n  700.0000m   32.5000m 
   32.60000m   14.5522n  700.0000m   32.6000m 
   32.70000m   14.5522n  700.0000m   32.7000m 
   32.80000m   14.5522n  700.0000m   32.8000m 
   32.90000m   14.5522n  700.0000m   32.9000m 
   33.00000m   14.5522n  700.0000m   33.0000m 
   33.10000m   14.5522n  700.0000m   33.1000m 
   33.20000m   14.5522n  700.0000m   33.2000m 
   33.30000m   14.5522n  700.0000m   33.3000m 
   33.40000m   14.5522n  700.0000m   33.4000m 
   33.50000m   14.5522n  700.0000m   33.5000m 
   33.60000m   14.5522n  700.0000m   33.6000m 
   33.70000m   14.5522n  700.0000m   33.7000m 
   33.80000m   14.5522n  700.0000m   33.8000m 
   33.90000m   14.5522n  700.0000m   33.9000m 
   34.00000m   14.5522n  700.0000m   34.0000m 
   34.10000m   14.5522n  700.0000m   34.1000m 
   34.20000m   14.5522n  700.0000m   34.2000m 
   34.30000m   14.5522n  700.0000m   34.3000m 
   34.40000m   14.5522n  700.0000m   34.4000m 
   34.50000m   14.5522n  700.0000m   34.5000m 
   34.60000m   14.5522n  700.0000m   34.6000m 
   34.70000m   14.5522n  700.0000m   34.7000m 
   34.80000m   14.5522n  700.0000m   34.8000m 
   34.90000m   14.5522n  700.0000m   34.9000m 
   35.00000m   14.5522n  700.0000m   35.0000m 
   35.10000m   14.5522n  700.0000m   35.1000m 
   35.20000m   14.5522n  700.0000m   35.2000m 
   35.30000m   14.5522n  700.0000m   35.3000m 
   35.40000m   14.5522n  700.0000m   35.4000m 
   35.50000m   14.5522n  700.0000m   35.5000m 
   35.60000m   14.5522n  700.0000m   35.6000m 
   35.70000m   14.5522n  700.0000m   35.7000m 
   35.80000m   14.5522n  700.0000m   35.8000m 
   35.90000m   14.5522n  700.0000m   35.9000m 
   36.00000m   14.5522n  700.0000m   36.0000m 
   36.10000m   14.5522n  700.0000m   36.1000m 
   36.20000m   14.5522n  700.0000m   36.2000m 
   36.30000m   14.5522n  700.0000m   36.3000m 
   36.40000m   14.5522n  700.0000m   36.4000m 
   36.50000m   14.5522n  700.0000m   36.5000m 
   36.60000m   14.5522n  700.0000m   36.6000m 
   36.70000m   14.5522n  700.0000m   36.7000m 
   36.80000m   14.5522n  700.0000m   36.8000m 
   36.90000m   14.5522n  700.0000m   36.9000m 
   37.00000m   14.5522n  700.0000m   37.0000m 
   37.10000m   14.5522n  700.0000m   37.1000m 
   37.20000m   14.5522n  700.0000m   37.2000m 
   37.30000m   14.5522n  700.0000m   37.3000m 
   37.40000m   14.5522n  700.0000m   37.4000m 
   37.50000m   14.5522n  700.0000m   37.5000m 
   37.60000m   14.5522n  700.0000m   37.6000m 
   37.70000m   14.5522n  700.0000m   37.7000m 
   37.80000m   14.5522n  700.0000m   37.8000m 
   37.90000m   14.5522n  700.0000m   37.9000m 
   38.00000m   14.5522n  700.0000m   38.0000m 
   38.10000m   14.5522n  700.0000m   38.1000m 
   38.20000m   14.5522n  700.0000m   38.2000m 
   38.30000m   14.5522n  700.0000m   38.3000m 
   38.40000m   14.5522n  700.0000m   38.4000m 
   38.50000m   14.5522n  700.0000m   38.5000m 
   38.60000m   14.5522n  700.0000m   38.6000m 
   38.70000m   14.5522n  700.0000m   38.7000m 
   38.80000m   14.5522n  700.0000m   38.8000m 
   38.90000m   14.5522n  700.0000m   38.9000m 
   39.00000m   14.5522n  700.0000m   39.0000m 
   39.10000m   14.5522n  700.0000m   39.1000m 
   39.20000m   14.5522n  700.0000m   39.2000m 
   39.30000m   14.5522n  700.0000m   39.3000m 
   39.40000m   14.5522n  700.0000m   39.4000m 
   39.50000m   14.5522n  700.0000m   39.5000m 
   39.60000m   14.5522n  700.0000m   39.6000m 
   39.70000m   14.5522n  700.0000m   39.7000m 
   39.80000m   14.5522n  700.0000m   39.8000m 
   39.90000m   14.5522n  700.0000m   39.9000m 
   40.00000m   14.5522n  700.0000m   40.0000m 
   40.10000m   14.5522n  700.0000m   40.1000m 
   40.20000m   14.5522n  700.0000m   40.2000m 
   40.30000m   14.5522n  700.0000m   40.3000m 
   40.40000m   14.5522n  700.0000m   40.4000m 
   40.50000m   14.5522n  700.0000m   40.5000m 
   40.60000m   14.5522n  700.0000m   40.6000m 
   40.70000m   14.5522n  700.0000m   40.7000m 
   40.80000m   14.5522n  700.0000m   40.8000m 
   40.90000m   14.5522n  700.0000m   40.9000m 
   41.00000m   14.5522n  700.0000m   41.0000m 
   41.10000m   14.5522n  700.0000m   41.1000m 
   41.20000m   14.5522n  700.0000m   41.2000m 
   41.30000m   14.5522n  700.0000m   41.3000m 
   41.40000m   14.5522n  700.0000m   41.4000m 
   41.50000m   14.5522n  700.0000m   41.5000m 
   41.60000m   14.5522n  700.0000m   41.6000m 
   41.70000m   14.5522n  700.0000m   41.7000m 
   41.80000m   14.5522n  700.0000m   41.8000m 
   41.90000m   14.5522n  700.0000m   41.9000m 
   42.00000m   14.5522n  700.0000m   42.0000m 
   42.10000m   14.5522n  700.0000m   42.1000m 
   42.20000m   14.5522n  700.0000m   42.2000m 
   42.30000m   14.5522n  700.0000m   42.3000m 
   42.40000m   14.5522n  700.0000m   42.4000m 
   42.50000m   14.5522n  700.0000m   42.5000m 
   42.60000m   14.5522n  700.0000m   42.6000m 
   42.70000m   14.5522n  700.0000m   42.7000m 
   42.80000m   14.5522n  700.0000m   42.8000m 
   42.90000m   14.5522n  700.0000m   42.9000m 
   43.00000m   14.5522n  700.0000m   43.0000m 
   43.10000m   14.5522n  700.0000m   43.1000m 
   43.20000m   14.5522n  700.0000m   43.2000m 
   43.30000m   14.5522n  700.0000m   43.3000m 
   43.40000m   14.5522n  700.0000m   43.4000m 
   43.50000m   14.5522n  700.0000m   43.5000m 
   43.60000m   14.5522n  700.0000m   43.6000m 
   43.70000m   14.5522n  700.0000m   43.7000m 
   43.80000m   14.5522n  700.0000m   43.8000m 
   43.90000m   14.5522n  700.0000m   43.9000m 
   44.00000m   14.5522n  700.0000m   44.0000m 
   44.10000m   14.5522n  700.0000m   44.1000m 
   44.20000m   14.5522n  700.0000m   44.2000m 
   44.30000m   14.5522n  700.0000m   44.3000m 
   44.40000m   14.5522n  700.0000m   44.4000m 
   44.50000m   14.5522n  700.0000m   44.5000m 
   44.60000m   14.5522n  700.0000m   44.6000m 
   44.70000m   14.5522n  700.0000m   44.7000m 
   44.80000m   14.5522n  700.0000m   44.8000m 
   44.90000m   14.5522n  700.0000m   44.9000m 
   45.00000m   14.5522n  700.0000m   45.0000m 
   45.10000m   14.5522n  700.0000m   45.1000m 
   45.20000m   14.5522n  700.0000m   45.2000m 
   45.30000m   14.5522n  700.0000m   45.3000m 
   45.40000m   14.5522n  700.0000m   45.4000m 
   45.50000m   14.5522n  700.0000m   45.5000m 
   45.60000m   14.5522n  700.0000m   45.6000m 
   45.70000m   14.5522n  700.0000m   45.7000m 
   45.80000m   14.5522n  700.0000m   45.8000m 
   45.90000m   14.5522n  700.0000m   45.9000m 
   46.00000m   14.5522n  700.0000m   46.0000m 
   46.10000m   14.5522n  700.0000m   46.1000m 
   46.20000m   14.5522n  700.0000m   46.2000m 
   46.30000m   14.5522n  700.0000m   46.3000m 
   46.40000m   14.5522n  700.0000m   46.4000m 
   46.50000m   14.5522n  700.0000m   46.5000m 
   46.60000m   14.5522n  700.0000m   46.6000m 
   46.70000m   14.5522n  700.0000m   46.7000m 
   46.80000m   14.5522n  700.0000m   46.8000m 
   46.90000m   14.5522n  700.0000m   46.9000m 
   47.00000m   14.5522n  700.0000m   47.0000m 
   47.10000m   14.5522n  700.0000m   47.1000m 
   47.20000m   14.5522n  700.0000m   47.2000m 
   47.30000m   14.5522n  700.0000m   47.3000m 
   47.40000m   14.5522n  700.0000m   47.4000m 
   47.50000m   14.5522n  700.0000m   47.5000m 
   47.60000m   14.5522n  700.0000m   47.6000m 
   47.70000m   14.5522n  700.0000m   47.7000m 
   47.80000m   14.5522n  700.0000m   47.8000m 
   47.90000m   14.5522n  700.0000m   47.9000m 
   48.00000m   14.5522n  700.0000m   48.0000m 
   48.10000m   14.5522n  700.0000m   48.1000m 
   48.20000m   14.5522n  700.0000m   48.2000m 
   48.30000m   14.5522n  700.0000m   48.3000m 
   48.40000m   14.5522n  700.0000m   48.4000m 
   48.50000m   14.5522n  700.0000m   48.5000m 
   48.60000m   14.5522n  700.0000m   48.6000m 
   48.70000m   14.5522n  700.0000m   48.7000m 
   48.80000m   14.5522n  700.0000m   48.8000m 
   48.90000m   14.5522n  699.9999m   48.9000m 
   49.00000m   14.5522n  699.9999m   49.0000m 
   49.10000m   14.5522n  699.9999m   49.1000m 
   49.20000m   14.5522n  699.9999m   49.2000m 
   49.30000m   14.5522n  699.9999m   49.3000m 
   49.40000m   14.5522n  699.9999m   49.4000m 
   49.50000m   14.5522n  699.9999m   49.5000m 
   49.60000m   14.5522n  699.9999m   49.6000m 
   49.70000m   14.5522n  699.9999m   49.7000m 
   49.80000m   14.5522n  699.9999m   49.8000m 
   49.90000m   14.5522n  699.9999m   49.9000m 
   50.00000m   14.5522n  699.9999m   50.0000m 
   50.10000m   14.5522n  699.9999m   50.1000m 
   50.20000m   14.5522n  699.9999m   50.2000m 
   50.30000m   14.5522n  699.9999m   50.3000m 
   50.40000m   14.5522n  699.9999m   50.4000m 
   50.50000m   14.5522n  699.9999m   50.5000m 
   50.60000m   14.5522n  699.9999m   50.6000m 
   50.70000m   14.5522n  699.9999m   50.7000m 
   50.80000m   14.5522n  699.9999m   50.8000m 
   50.90000m   14.5522n  699.9999m   50.9000m 
   51.00000m   14.5522n  699.9999m   51.0000m 
   51.10000m   14.5522n  699.9999m   51.1000m 
   51.20000m   14.5522n  699.9999m   51.2000m 
   51.30000m   14.5522n  699.9999m   51.3000m 
   51.40000m   14.5522n  699.9999m   51.4000m 
   51.50000m   14.5522n  699.9999m   51.5000m 
   51.60000m   14.5522n  699.9999m   51.6000m 
   51.70000m   14.5522n  699.9999m   51.7000m 
   51.80000m   14.5522n  699.9999m   51.8000m 
   51.90000m   14.5522n  699.9999m   51.9000m 
   52.00000m   14.5522n  699.9999m   52.0000m 
   52.10000m   14.5522n  699.9999m   52.1000m 
   52.20000m   14.5522n  699.9999m   52.2000m 
   52.30000m   14.5522n  699.9999m   52.3000m 
   52.40000m   14.5522n  699.9999m   52.4000m 
   52.50000m   14.5522n  699.9999m   52.5000m 
   52.60000m   14.5522n  699.9999m   52.6000m 
   52.70000m   14.5522n  699.9999m   52.7000m 
   52.80000m   14.5522n  699.9999m   52.8000m 
   52.90000m   14.5522n  699.9999m   52.9000m 
   53.00000m   14.5522n  699.9999m   53.0000m 
   53.10000m   14.5522n  699.9999m   53.1000m 
   53.20000m   14.5522n  699.9999m   53.2000m 
   53.30000m   14.5522n  699.9999m   53.3000m 
   53.40000m   14.5522n  699.9999m   53.4000m 
   53.50000m   14.5522n  699.9999m   53.5000m 
   53.60000m   14.5522n  699.9999m   53.6000m 
   53.70000m   14.5522n  699.9999m   53.7000m 
   53.80000m   14.5522n  699.9999m   53.8000m 
   53.90000m   14.5522n  699.9999m   53.9000m 
   54.00000m   14.5522n  699.9999m   54.0000m 
   54.10000m   14.5522n  699.9999m   54.1000m 
   54.20000m   14.5522n  699.9999m   54.2000m 
   54.30000m   14.5522n  699.9999m   54.3000m 
   54.40000m   14.5522n  699.9999m   54.4000m 
   54.50000m   14.5522n  699.9999m   54.5000m 
   54.60000m   14.5522n  699.9999m   54.6000m 
   54.70000m   14.5522n  699.9999m   54.7000m 
   54.80000m   14.5522n  699.9999m   54.8000m 
   54.90000m   14.5522n  699.9999m   54.9000m 
   55.00000m   14.5522n  699.9999m   55.0000m 
   55.10000m   14.5522n  699.9999m   55.1000m 
   55.20000m   14.5522n  699.9999m   55.2000m 
   55.30000m   14.5522n  699.9999m   55.3000m 
   55.40000m   14.5522n  699.9999m   55.4000m 
   55.50000m   14.5522n  699.9999m   55.5000m 
   55.60000m   14.5522n  699.9999m   55.6000m 
   55.70000m   14.5522n  699.9999m   55.7000m 
   55.80000m   14.5522n  699.9999m   55.8000m 
   55.90000m   14.5522n  699.9999m   55.9000m 
   56.00000m   14.5522n  699.9999m   56.0000m 
   56.10000m   14.5522n  699.9999m   56.1000m 
   56.20000m   14.5522n  699.9999m   56.2000m 
   56.30000m   14.5522n  699.9999m   56.3000m 
   56.40000m   14.5522n  699.9999m   56.4000m 
   56.50000m   14.5522n  699.9999m   56.5000m 
   56.60000m   14.5522n  699.9999m   56.6000m 
   56.70000m   14.5522n  699.9999m   56.7000m 
   56.80000m   14.5522n  699.9999m   56.8000m 
   56.90000m   14.5522n  699.9999m   56.9000m 
   57.00000m   14.5522n  699.9999m   57.0000m 
   57.10000m   14.5522n  699.9999m   57.1000m 
   57.20000m   14.5522n  699.9999m   57.2000m 
   57.30000m   14.5522n  699.9999m   57.3000m 
   57.40000m   14.5522n  699.9999m   57.4000m 
   57.50000m   14.5522n  699.9999m   57.5000m 
   57.60000m   14.5522n  699.9999m   57.6000m 
   57.70000m   14.5522n  699.9999m   57.7000m 
   57.80000m   14.5522n  699.9999m   57.8000m 
   57.90000m   14.5522n  699.9999m   57.9000m 
   58.00000m   14.5522n  699.9999m   58.0000m 
   58.10000m   14.5522n  699.9999m   58.1000m 
   58.20000m   14.5522n  699.9999m   58.2000m 
   58.30000m   14.5522n  699.9999m   58.3000m 
   58.40000m   14.5522n  699.9999m   58.4000m 
   58.50000m   14.5522n  699.9999m   58.5000m 
   58.60000m   14.5522n  699.9999m   58.6000m 
   58.70000m   14.5522n  699.9999m   58.7000m 
   58.80000m   14.5522n  699.9999m   58.8000m 
   58.90000m   14.5522n  699.9999m   58.9000m 
   59.00000m   14.5522n  699.9999m   59.0000m 
   59.10000m   14.5522n  699.9999m   59.1000m 
   59.20000m   14.5522n  699.9999m   59.2000m 
   59.30000m   14.5522n  699.9999m   59.3000m 
   59.40000m   14.5522n  699.9999m   59.4000m 
   59.50000m   14.5522n  699.9999m   59.5000m 
   59.60000m   14.5522n  699.9999m   59.6000m 
   59.70000m   14.5522n  699.9999m   59.7000m 
   59.80000m   14.5522n  699.9999m   59.8000m 
   59.90000m   14.5522n  699.9999m   59.9000m 
   60.00000m   14.5522n  699.9999m   60.0000m 
   60.10000m   14.5522n  699.9999m   60.1000m 
   60.20000m   14.5522n  699.9999m   60.2000m 
   60.30000m   14.5522n  699.9999m   60.3000m 
   60.40000m   14.5522n  699.9999m   60.4000m 
   60.50000m   14.5522n  699.9999m   60.5000m 
   60.60000m   14.5522n  699.9999m   60.6000m 
   60.70000m   14.5522n  699.9999m   60.7000m 
   60.80000m   14.5522n  699.9999m   60.8000m 
   60.90000m   14.5522n  699.9999m   60.9000m 
   61.00000m   14.5522n  699.9999m   61.0000m 
   61.10000m   14.5522n  699.9999m   61.1000m 
   61.20000m   14.5522n  699.9999m   61.2000m 
   61.30000m   14.5522n  699.9999m   61.3000m 
   61.40000m   14.5522n  699.9999m   61.4000m 
   61.50000m   14.5522n  699.9999m   61.5000m 
   61.60000m   14.5522n  699.9999m   61.6000m 
   61.70000m   14.5522n  699.9999m   61.7000m 
   61.80000m   14.5522n  699.9999m   61.8000m 
   61.90000m   14.5522n  699.9999m   61.9000m 
   62.00000m   14.5522n  699.9999m   62.0000m 
   62.10000m   14.5522n  699.9999m   62.1000m 
   62.20000m   14.5522n  699.9999m   62.2000m 
   62.30000m   14.5522n  699.9999m   62.3000m 
   62.40000m   14.5522n  699.9999m   62.4000m 
   62.50000m   14.5522n  699.9999m   62.5000m 
   62.60000m   14.5522n  699.9999m   62.6000m 
   62.70000m   14.5522n  699.9999m   62.7000m 
   62.80000m   14.5522n  699.9999m   62.8000m 
   62.90000m   14.5522n  699.9999m   62.9000m 
   63.00000m   14.5522n  699.9999m   63.0000m 
   63.10000m   14.5522n  699.9999m   63.1000m 
   63.20000m   14.5522n  699.9999m   63.2000m 
   63.30000m   14.5522n  699.9999m   63.3000m 
   63.40000m   14.5522n  699.9999m   63.4000m 
   63.50000m   14.5522n  699.9999m   63.5000m 
   63.60000m   14.5522n  699.9999m   63.6000m 
   63.70000m   14.5522n  699.9999m   63.7000m 
   63.80000m   14.5522n  699.9999m   63.8000m 
   63.90000m   14.5522n  699.9999m   63.9000m 
   64.00000m   14.5522n  699.9999m   64.0000m 
   64.10000m   14.5522n  699.9999m   64.1000m 
   64.20000m   14.5522n  699.9999m   64.2000m 
   64.30000m   14.5522n  699.9999m   64.3000m 
   64.40000m   14.5522n  699.9999m   64.4000m 
   64.50000m   14.5522n  699.9999m   64.5000m 
   64.60000m   14.5522n  699.9999m   64.6000m 
   64.70000m   14.5522n  699.9999m   64.7000m 
   64.80000m   14.5522n  699.9999m   64.8000m 
   64.90000m   14.5522n  699.9999m   64.9000m 
   65.00000m   14.5522n  699.9999m   65.0000m 
   65.10000m   14.5522n  699.9999m   65.1000m 
   65.20000m   14.5522n  699.9999m   65.2000m 
   65.30000m   14.5522n  699.9999m   65.3000m 
   65.40000m   14.5522n  699.9999m   65.4000m 
   65.50000m   14.5522n  699.9999m   65.5000m 
   65.60000m   14.5522n  699.9999m   65.6000m 
   65.70000m   14.5522n  699.9999m   65.7000m 
   65.80000m   14.5522n  699.9999m   65.8000m 
   65.90000m   14.5522n  699.9999m   65.9000m 
   66.00000m   14.5522n  699.9999m   66.0000m 
   66.10000m   14.5522n  699.9999m   66.1000m 
   66.20000m   14.5522n  699.9999m   66.2000m 
   66.30000m   14.5522n  699.9999m   66.3000m 
   66.40000m   14.5522n  699.9999m   66.4000m 
   66.50000m   14.5522n  699.9999m   66.5000m 
   66.60000m   14.5522n  699.9999m   66.6000m 
   66.70000m   14.5522n  699.9999m   66.7000m 
   66.80000m   14.5522n  699.9999m   66.8000m 
   66.90000m   14.5522n  699.9999m   66.9000m 
   67.00000m   14.5522n  699.9999m   67.0000m 
   67.10000m   14.5522n  699.9999m   67.1000m 
   67.20000m   14.5522n  699.9999m   67.2000m 
   67.30000m   14.5522n  699.9999m   67.3000m 
   67.40000m   14.5522n  699.9999m   67.4000m 
   67.50000m   14.5522n  699.9999m   67.5000m 
   67.60000m   14.5522n  699.9999m   67.6000m 
   67.70000m   14.5522n  699.9999m   67.7000m 
   67.80000m   14.5522n  699.9999m   67.8000m 
   67.90000m   14.5522n  699.9999m   67.9000m 
   68.00000m   14.5522n  699.9999m   68.0000m 
   68.10000m   14.5522n  699.9999m   68.1000m 
   68.20000m   14.5522n  699.9999m   68.2000m 
   68.30000m   14.5522n  699.9999m   68.3000m 
   68.40000m   14.5522n  699.9999m   68.4000m 
   68.50000m   14.5522n  699.9999m   68.5000m 
   68.60000m   14.5522n  699.9999m   68.6000m 
   68.70000m   14.5522n  699.9999m   68.7000m 
   68.80000m   14.5522n  699.9999m   68.8000m 
   68.90000m   14.5522n  699.9999m   68.9000m 
   69.00000m   14.5522n  699.9999m   69.0000m 
   69.10000m   14.5522n  699.9999m   69.1000m 
   69.20000m   14.5522n  699.9999m   69.2000m 
   69.30000m   14.5522n  699.9999m   69.3000m 
   69.40000m   14.5522n  699.9999m   69.4000m 
   69.50000m   14.5522n  699.9999m   69.5000m 
   69.60000m   14.5522n  699.9999m   69.6000m 
   69.70000m   14.5522n  699.9999m   69.7000m 
   69.80000m   14.5522n  699.9999m   69.8000m 
   69.90000m   14.5522n  699.9999m   69.9000m 
   70.00000m   14.5522n  699.9999m   70.0000m 
   70.10000m   14.5522n  699.9999m   70.1000m 
   70.20000m   14.5522n  699.9999m   70.2000m 
   70.30000m   14.5522n  699.9999m   70.3000m 
   70.40000m   14.5522n  699.9999m   70.4000m 
   70.50000m   14.5522n  699.9999m   70.5000m 
   70.60000m   14.5522n  699.9999m   70.6000m 
   70.70000m   14.5522n  699.9999m   70.7000m 
   70.80000m   14.5522n  699.9999m   70.8000m 
   70.90000m   14.5522n  699.9999m   70.9000m 
   71.00000m   14.5522n  699.9999m   71.0000m 
   71.10000m   14.5522n  699.9999m   71.1000m 
   71.20000m   14.5522n  699.9999m   71.2000m 
   71.30000m   14.5522n  699.9999m   71.3000m 
   71.40000m   14.5522n  699.9999m   71.4000m 
   71.50000m   14.5522n  699.9999m   71.5000m 
   71.60000m   14.5522n  699.9999m   71.6000m 
   71.70000m   14.5522n  699.9999m   71.7000m 
   71.80000m   14.5522n  699.9999m   71.8000m 
   71.90000m   14.5522n  699.9999m   71.9000m 
   72.00000m   14.5522n  699.9999m   72.0000m 
   72.10000m   14.5522n  699.9999m   72.1000m 
   72.20000m   14.5522n  699.9999m   72.2000m 
   72.30000m   14.5522n  699.9999m   72.3000m 
   72.40000m   14.5522n  699.9999m   72.4000m 
   72.50000m   14.5522n  699.9999m   72.5000m 
   72.60000m   14.5522n  699.9999m   72.6000m 
   72.70000m   14.5522n  699.9999m   72.7000m 
   72.80000m   14.5522n  699.9999m   72.8000m 
   72.90000m   14.5522n  699.9999m   72.9000m 
   73.00000m   14.5522n  699.9999m   73.0000m 
   73.10000m   14.5522n  699.9999m   73.1000m 
   73.20000m   14.5522n  699.9999m   73.2000m 
   73.30000m   14.5522n  699.9999m   73.3000m 
   73.40000m   14.5522n  699.9999m   73.4000m 
   73.50000m   14.5522n  699.9999m   73.5000m 
   73.60000m   14.5522n  699.9999m   73.6000m 
   73.70000m   14.5522n  699.9999m   73.7000m 
   73.80000m   14.5522n  699.9999m   73.8000m 
   73.90000m   14.5522n  699.9999m   73.9000m 
   74.00000m   14.5522n  699.9999m   74.0000m 
   74.10000m   14.5522n  699.9999m   74.1000m 
   74.20000m   14.5522n  699.9999m   74.2000m 
   74.30000m   14.5522n  699.9999m   74.3000m 
   74.40000m   14.5522n  699.9999m   74.4000m 
   74.50000m   14.5522n  699.9999m   74.5000m 
   74.60000m   14.5522n  699.9999m   74.6000m 
   74.70000m   14.5522n  699.9999m   74.7000m 
   74.80000m   14.5522n  699.9999m   74.8000m 
   74.90000m   14.5522n  699.9999m   74.9000m 
   75.00000m   14.5522n  699.9999m   75.0000m 
   75.10000m   14.5522n  699.9999m   75.1000m 
   75.20000m   14.5522n  699.9999m   75.2000m 
   75.30000m   14.5522n  699.9999m   75.3000m 
   75.40000m   14.5522n  699.9999m   75.4000m 
   75.50000m   14.5522n  699.9999m   75.5000m 
   75.60000m   14.5522n  699.9999m   75.6000m 
   75.70000m   14.5522n  699.9999m   75.7000m 
   75.80000m   14.5522n  699.9999m   75.8000m 
   75.90000m   14.5522n  699.9999m   75.9000m 
   76.00000m   14.5522n  699.9999m   76.0000m 
   76.10000m   14.5522n  699.9999m   76.1000m 
   76.20000m   14.5522n  699.9999m   76.2000m 
   76.30000m   14.5522n  699.9999m   76.3000m 
   76.40000m   14.5522n  699.9999m   76.4000m 
   76.50000m   14.5522n  699.9999m   76.5000m 
   76.60000m   14.5522n  699.9999m   76.6000m 
   76.70000m   14.5522n  699.9999m   76.7000m 
   76.80000m   14.5522n  699.9999m   76.8000m 
   76.90000m   14.5522n  699.9999m   76.9000m 
   77.00000m   14.5522n  699.9999m   77.0000m 
   77.10000m   14.5522n  699.9999m   77.1000m 
   77.20000m   14.5522n  699.9999m   77.2000m 
   77.30000m   14.5522n  699.9999m   77.3000m 
   77.40000m   14.5522n  699.9999m   77.4000m 
   77.50000m   14.5522n  699.9999m   77.5000m 
   77.60000m   14.5522n  699.9999m   77.6000m 
   77.70000m   14.5522n  699.9999m   77.7000m 
   77.80000m   14.5522n  699.9999m   77.8000m 
   77.90000m   14.5522n  699.9999m   77.9000m 
   78.00000m   14.5522n  699.9999m   78.0000m 
   78.10000m   14.5522n  699.9999m   78.1000m 
   78.20000m   14.5522n  699.9999m   78.2000m 
   78.30000m   14.5522n  699.9999m   78.3000m 
   78.40000m   14.5522n  699.9999m   78.4000m 
   78.50000m   14.5522n  699.9999m   78.5000m 
   78.60000m   14.5522n  699.9999m   78.6000m 
   78.70000m   14.5522n  699.9999m   78.7000m 
   78.80000m   14.5522n  699.9999m   78.8000m 
   78.90000m   14.5522n  699.9999m   78.9000m 
   79.00000m   14.5522n  699.9999m   79.0000m 
   79.10000m   14.5522n  699.9998m   79.1000m 
   79.20000m   14.5522n  699.9998m   79.2000m 
   79.30000m   14.5522n  699.9998m   79.3000m 
   79.40000m   14.5522n  699.9998m   79.4000m 
   79.50000m   14.5522n  699.9998m   79.5000m 
   79.60000m   14.5522n  699.9998m   79.6000m 
   79.70000m   14.5522n  699.9998m   79.7000m 
   79.80000m   14.5522n  699.9998m   79.8000m 
   79.90000m   14.5522n  699.9998m   79.9000m 
   80.00000m   14.5522n  699.9998m   80.0000m 
   80.10000m   14.5522n  699.9998m   80.1000m 
   80.20000m   14.5522n  699.9998m   80.2000m 
   80.30000m   14.5522n  699.9998m   80.3000m 
   80.40000m   14.5522n  699.9998m   80.4000m 
   80.50000m   14.5522n  699.9998m   80.5000m 
   80.60000m   14.5522n  699.9998m   80.6000m 
   80.70000m   14.5522n  699.9998m   80.7000m 
   80.80000m   14.5522n  699.9998m   80.8000m 
   80.90000m   14.5522n  699.9998m   80.9000m 
   81.00000m   14.5522n  699.9998m   81.0000m 
   81.10000m   14.5522n  699.9998m   81.1000m 
   81.20000m   14.5522n  699.9998m   81.2000m 
   81.30000m   14.5522n  699.9998m   81.3000m 
   81.40000m   14.5522n  699.9998m   81.4000m 
   81.50000m   14.5522n  699.9998m   81.5000m 
   81.60000m   14.5522n  699.9998m   81.6000m 
   81.70000m   14.5522n  699.9998m   81.7000m 
   81.80000m   14.5522n  699.9998m   81.8000m 
   81.90000m   14.5522n  699.9998m   81.9000m 
   82.00000m   14.5522n  699.9998m   82.0000m 
   82.10000m   14.5522n  699.9998m   82.1000m 
   82.20000m   14.5522n  699.9998m   82.2000m 
   82.30000m   14.5522n  699.9998m   82.3000m 
   82.40000m   14.5522n  699.9998m   82.4000m 
   82.50000m   14.5522n  699.9998m   82.5000m 
   82.60000m   14.5522n  699.9998m   82.6000m 
   82.70000m   14.5522n  699.9998m   82.7000m 
   82.80000m   14.5522n  699.9998m   82.8000m 
   82.90000m   14.5522n  699.9998m   82.9000m 
   83.00000m   14.5522n  699.9998m   83.0000m 
   83.10000m   14.5522n  699.9998m   83.1000m 
   83.20000m   14.5522n  699.9998m   83.2000m 
   83.30000m   14.5522n  699.9998m   83.3000m 
   83.40000m   14.5522n  699.9998m   83.4000m 
   83.50000m   14.5522n  699.9998m   83.5000m 
   83.60000m   14.5522n  699.9998m   83.6000m 
   83.70000m   14.5522n  699.9998m   83.7000m 
   83.80000m   14.5522n  699.9998m   83.8000m 
   83.90000m   14.5522n  699.9998m   83.9000m 
   84.00000m   14.5522n  699.9998m   84.0000m 
   84.10000m   14.5522n  699.9998m   84.1000m 
   84.20000m   14.5522n  699.9998m   84.2000m 
   84.30000m   14.5522n  699.9998m   84.3000m 
   84.40000m   14.5522n  699.9998m   84.4000m 
   84.50000m   14.5522n  699.9998m   84.5000m 
   84.60000m   14.5522n  699.9998m   84.6000m 
   84.70000m   14.5522n  699.9998m   84.7000m 
   84.80000m   14.5522n  699.9998m   84.8000m 
   84.90000m   14.5522n  699.9998m   84.9000m 
   85.00000m   14.5522n  699.9998m   85.0000m 
   85.10000m   14.5522n  699.9998m   85.1000m 
   85.20000m   14.5522n  699.9998m   85.2000m 
   85.30000m   14.5522n  699.9998m   85.3000m 
   85.40000m   14.5522n  699.9998m   85.4000m 
   85.50000m   14.5522n  699.9998m   85.5000m 
   85.60000m   14.5522n  699.9998m   85.6000m 
   85.70000m   14.5522n  699.9998m   85.7000m 
   85.80000m   14.5522n  699.9998m   85.8000m 
   85.90000m   14.5522n  699.9998m   85.9000m 
   86.00000m   14.5522n  699.9998m   86.0000m 
   86.10000m   14.5522n  699.9998m   86.1000m 
   86.20000m   14.5522n  699.9998m   86.2000m 
   86.30000m   14.5522n  699.9998m   86.3000m 
   86.40000m   14.5522n  699.9998m   86.4000m 
   86.50000m   14.5522n  699.9998m   86.5000m 
   86.60000m   14.5522n  699.9998m   86.6000m 
   86.70000m   14.5522n  699.9998m   86.7000m 
   86.80000m   14.5522n  699.9998m   86.8000m 
   86.90000m   14.5522n  699.9998m   86.9000m 
   87.00000m   14.5522n  699.9998m   87.0000m 
   87.10000m   14.5522n  699.9998m   87.1000m 
   87.20000m   14.5522n  699.9998m   87.2000m 
   87.30000m   14.5523n  699.9998m   87.3000m 
   87.40000m   14.5523n  699.9998m   87.4000m 
   87.50000m   14.5523n  699.9998m   87.5000m 
   87.60000m   14.5523n  699.9998m   87.6000m 
   87.70000m   14.5523n  699.9998m   87.7000m 
   87.80000m   14.5523n  699.9998m   87.8000m 
   87.90000m   14.5523n  699.9998m   87.9000m 
   88.00000m   14.5523n  699.9998m   88.0000m 
   88.10000m   14.5523n  699.9998m   88.1000m 
   88.20000m   14.5523n  699.9998m   88.2000m 
   88.30000m   14.5523n  699.9998m   88.3000m 
   88.40000m   14.5523n  699.9998m   88.4000m 
   88.50000m   14.5523n  699.9998m   88.5000m 
   88.60000m   14.5523n  699.9998m   88.6000m 
   88.70000m   14.5523n  699.9998m   88.7000m 
   88.80000m   14.5523n  699.9998m   88.8000m 
   88.90000m   14.5523n  699.9998m   88.9000m 
   89.00000m   14.5523n  699.9998m   89.0000m 
   89.10000m   14.5523n  699.9998m   89.1000m 
   89.20000m   14.5523n  699.9998m   89.2000m 
   89.30000m   14.5523n  699.9998m   89.3000m 
   89.40000m   14.5523n  699.9998m   89.4000m 
   89.50000m   14.5523n  699.9998m   89.5000m 
   89.60000m   14.5523n  699.9998m   89.6000m 
   89.70000m   14.5523n  699.9998m   89.7000m 
   89.80000m   14.5523n  699.9998m   89.8000m 
   89.90000m   14.5523n  699.9998m   89.9000m 
   90.00000m   14.5523n  699.9998m   90.0000m 
   90.10000m   14.5523n  699.9998m   90.1000m 
   90.20000m   14.5523n  699.9998m   90.2000m 
   90.30000m   14.5523n  699.9998m   90.3000m 
   90.40000m   14.5523n  699.9998m   90.4000m 
   90.50000m   14.5523n  699.9998m   90.5000m 
   90.60000m   14.5523n  699.9998m   90.6000m 
   90.70000m   14.5523n  699.9998m   90.7000m 
   90.80000m   14.5523n  699.9998m   90.8000m 
   90.90000m   14.5523n  699.9998m   90.9000m 
   91.00000m   14.5523n  699.9998m   91.0000m 
   91.10000m   14.5523n  699.9998m   91.1000m 
   91.20000m   14.5523n  699.9998m   91.2000m 
   91.30000m   14.5523n  699.9998m   91.3000m 
   91.40000m   14.5523n  699.9998m   91.4000m 
   91.50000m   14.5523n  699.9998m   91.5000m 
   91.60000m   14.5523n  699.9998m   91.6000m 
   91.70000m   14.5523n  699.9998m   91.7000m 
   91.80000m   14.5523n  699.9998m   91.8000m 
   91.90000m   14.5523n  699.9998m   91.9000m 
   92.00000m   14.5523n  699.9998m   92.0000m 
   92.10000m   14.5523n  699.9998m   92.1000m 
   92.20000m   14.5523n  699.9998m   92.2000m 
   92.30000m   14.5523n  699.9997m   92.3000m 
   92.40000m   14.5523n  699.9997m   92.4000m 
   92.50000m   14.5523n  699.9997m   92.5000m 
   92.60000m   14.5523n  699.9997m   92.6000m 
   92.70000m   14.5523n  699.9997m   92.7000m 
   92.80000m   14.5523n  699.9997m   92.8000m 
   92.90000m   14.5523n  699.9997m   92.9000m 
   93.00000m   14.5523n  699.9997m   93.0000m 
   93.10000m   14.5523n  699.9997m   93.1000m 
   93.20000m   14.5523n  699.9997m   93.2000m 
   93.30000m   14.5523n  699.9997m   93.3000m 
   93.40000m   14.5523n  699.9997m   93.4000m 
   93.50000m   14.5523n  699.9997m   93.5000m 
   93.60000m   14.5523n  699.9997m   93.6000m 
   93.70000m   14.5523n  699.9997m   93.7000m 
   93.80000m   14.5523n  699.9997m   93.8000m 
   93.90000m   14.5523n  699.9997m   93.9000m 
   94.00000m   14.5523n  699.9997m   94.0000m 
   94.10000m   14.5523n  699.9997m   94.1000m 
   94.20000m   14.5523n  699.9997m   94.2000m 
   94.30000m   14.5523n  699.9997m   94.3000m 
   94.40000m   14.5523n  699.9997m   94.4000m 
   94.50000m   14.5523n  699.9997m   94.5000m 
   94.60000m   14.5523n  699.9997m   94.6000m 
   94.70000m   14.5523n  699.9997m   94.7000m 
   94.80000m   14.5523n  699.9997m   94.8000m 
   94.90000m   14.5523n  699.9997m   94.9000m 
   95.00000m   14.5523n  699.9997m   95.0000m 
   95.10000m   14.5523n  699.9997m   95.1000m 
   95.20000m   14.5523n  699.9997m   95.2000m 
   95.30000m   14.5523n  699.9997m   95.3000m 
   95.40000m   14.5523n  699.9997m   95.4000m 
   95.50000m   14.5523n  699.9997m   95.5000m 
   95.60000m   14.5523n  699.9997m   95.6000m 
   95.70000m   14.5523n  699.9997m   95.7000m 
   95.80000m   14.5523n  699.9997m   95.8000m 
   95.90000m   14.5523n  699.9997m   95.9000m 
   96.00000m   14.5523n  699.9997m   96.0000m 
   96.10000m   14.5523n  699.9997m   96.1000m 
   96.20000m   14.5523n  699.9997m   96.2000m 
   96.30000m   14.5523n  699.9997m   96.3000m 
   96.40000m   14.5523n  699.9997m   96.4000m 
   96.50000m   14.5523n  699.9997m   96.5000m 
   96.60000m   14.5523n  699.9997m   96.6000m 
   96.70000m   14.5523n  699.9997m   96.7000m 
   96.80000m   14.5523n  699.9997m   96.8000m 
   96.90000m   14.5523n  699.9997m   96.9000m 
   97.00000m   14.5523n  699.9997m   97.0000m 
   97.10000m   14.5523n  699.9997m   97.1000m 
   97.20000m   14.5523n  699.9997m   97.2000m 
   97.30000m   14.5523n  699.9997m   97.3000m 
   97.40000m   14.5523n  699.9997m   97.4000m 
   97.50000m   14.5523n  699.9997m   97.5000m 
   97.60000m   14.5523n  699.9997m   97.6000m 
   97.70000m   14.5523n  699.9997m   97.7000m 
   97.80000m   14.5523n  699.9997m   97.8000m 
   97.90000m   14.5523n  699.9997m   97.9000m 
   98.00000m   14.5523n  699.9997m   98.0000m 
   98.10000m   14.5523n  699.9997m   98.1000m 
   98.20000m   14.5523n  699.9997m   98.2000m 
   98.30000m   14.5523n  699.9997m   98.3000m 
   98.40000m   14.5523n  699.9997m   98.4000m 
   98.50000m   14.5523n  699.9997m   98.5000m 
   98.60000m   14.5523n  699.9997m   98.6000m 
   98.70000m   14.5523n  699.9997m   98.7000m 
   98.80000m   14.5523n  699.9997m   98.8000m 
   98.90000m   14.5523n  699.9997m   98.9000m 
   99.00000m   14.5523n  699.9997m   99.0000m 
   99.10000m   14.5523n  699.9997m   99.1000m 
   99.20000m   14.5523n  699.9997m   99.2000m 
   99.30000m   14.5523n  699.9997m   99.3000m 
   99.40000m   14.5523n  699.9997m   99.4000m 
   99.50000m   14.5523n  699.9997m   99.5000m 
   99.60000m   14.5523n  699.9997m   99.6000m 
   99.70000m   14.5523n  699.9997m   99.7000m 
   99.80000m   14.5523n  699.9997m   99.8000m 
   99.90000m   14.5523n  699.9997m   99.9000m 
  100.00000m   14.5523n  699.9997m  100.0000m 
  100.10000m   14.5523n  699.9997m  100.1000m 
  100.20000m   14.5523n  699.9997m  100.2000m 
  100.30000m   14.5523n  699.9997m  100.3000m 
  100.40000m   14.5523n  699.9997m  100.4000m 
  100.50000m   14.5523n  699.9997m  100.5000m 
  100.60000m   14.5523n  699.9997m  100.6000m 
  100.70000m   14.5523n  699.9997m  100.7000m 
  100.80000m   14.5523n  699.9996m  100.8000m 
  100.90000m   14.5523n  699.9996m  100.9000m 
  101.00000m   14.5523n  699.9996m  101.0000m 
  101.10000m   14.5523n  699.9996m  101.1000m 
  101.20000m   14.5523n  699.9996m  101.2000m 
  101.30000m   14.5523n  699.9996m  101.3000m 
  101.40000m   14.5523n  699.9996m  101.4000m 
  101.50000m   14.5523n  699.9996m  101.5000m 
  101.60000m   14.5523n  699.9996m  101.6000m 
  101.70000m   14.5523n  699.9996m  101.7000m 
  101.80000m   14.5523n  699.9996m  101.8000m 
  101.90000m   14.5523n  699.9996m  101.9000m 
  102.00000m   14.5523n  699.9996m  102.0000m 
  102.10000m   14.5523n  699.9996m  102.1000m 
  102.20000m   14.5523n  699.9996m  102.2000m 
  102.30000m   14.5523n  699.9996m  102.3000m 
  102.40000m   14.5523n  699.9996m  102.4000m 
  102.50000m   14.5523n  699.9996m  102.5000m 
  102.60000m   14.5523n  699.9996m  102.6000m 
  102.70000m   14.5523n  699.9996m  102.7000m 
  102.80000m   14.5523n  699.9996m  102.8000m 
  102.90000m   14.5523n  699.9996m  102.9000m 
  103.00000m   14.5523n  699.9996m  103.0000m 
  103.10000m   14.5523n  699.9996m  103.1000m 
  103.20000m   14.5523n  699.9996m  103.2000m 
  103.30000m   14.5523n  699.9996m  103.3000m 
  103.40000m   14.5523n  699.9996m  103.4000m 
  103.50000m   14.5523n  699.9996m  103.5000m 
  103.60000m   14.5523n  699.9996m  103.6000m 
  103.70000m   14.5523n  699.9996m  103.7000m 
  103.80000m   14.5523n  699.9996m  103.8000m 
  103.90000m   14.5523n  699.9996m  103.9000m 
  104.00000m   14.5523n  699.9996m  104.0000m 
  104.10000m   14.5523n  699.9996m  104.1000m 
  104.20000m   14.5523n  699.9996m  104.2000m 
  104.30000m   14.5523n  699.9996m  104.3000m 
  104.40000m   14.5523n  699.9996m  104.4000m 
  104.50000m   14.5523n  699.9996m  104.5000m 
  104.60000m   14.5523n  699.9996m  104.6000m 
  104.70000m   14.5523n  699.9996m  104.7000m 
  104.80000m   14.5523n  699.9996m  104.8000m 
  104.90000m   14.5523n  699.9996m  104.9000m 
  105.00000m   14.5523n  699.9996m  105.0000m 
  105.10000m   14.5523n  699.9996m  105.1000m 
  105.20000m   14.5523n  699.9996m  105.2000m 
  105.30000m   14.5524n  699.9996m  105.3000m 
  105.40000m   14.5524n  699.9996m  105.4000m 
  105.50000m   14.5524n  699.9996m  105.5000m 
  105.60000m   14.5524n  699.9996m  105.6000m 
  105.70000m   14.5524n  699.9996m  105.7000m 
  105.80000m   14.5524n  699.9996m  105.8000m 
  105.90000m   14.5524n  699.9996m  105.9000m 
  106.00000m   14.5524n  699.9996m  106.0000m 
  106.10000m   14.5524n  699.9996m  106.1000m 
  106.20000m   14.5524n  699.9996m  106.2000m 
  106.30000m   14.5524n  699.9996m  106.3000m 
  106.40000m   14.5524n  699.9996m  106.4000m 
  106.50000m   14.5524n  699.9996m  106.5000m 
  106.60000m   14.5524n  699.9996m  106.6000m 
  106.70000m   14.5524n  699.9996m  106.7000m 
  106.80000m   14.5524n  699.9996m  106.8000m 
  106.90000m   14.5524n  699.9996m  106.9000m 
  107.00000m   14.5524n  699.9996m  107.0000m 
  107.10000m   14.5524n  699.9995m  107.1000m 
  107.20000m   14.5524n  699.9995m  107.2000m 
  107.30000m   14.5524n  699.9995m  107.3000m 
  107.40000m   14.5524n  699.9995m  107.4000m 
  107.50000m   14.5524n  699.9995m  107.5000m 
  107.60000m   14.5524n  699.9995m  107.6000m 
  107.70000m   14.5524n  699.9995m  107.7000m 
  107.80000m   14.5524n  699.9995m  107.8000m 
  107.90000m   14.5524n  699.9995m  107.9000m 
  108.00000m   14.5524n  699.9995m  108.0000m 
  108.10000m   14.5524n  699.9995m  108.1000m 
  108.20000m   14.5524n  699.9995m  108.2000m 
  108.30000m   14.5524n  699.9995m  108.3000m 
  108.40000m   14.5524n  699.9995m  108.4000m 
  108.50000m   14.5524n  699.9995m  108.5000m 
  108.60000m   14.5524n  699.9995m  108.6000m 
  108.70000m   14.5524n  699.9995m  108.7000m 
  108.80000m   14.5524n  699.9995m  108.8000m 
  108.90000m   14.5524n  699.9995m  108.9000m 
  109.00000m   14.5524n  699.9995m  109.0000m 
  109.10000m   14.5524n  699.9995m  109.1000m 
  109.20000m   14.5524n  699.9995m  109.2000m 
  109.30000m   14.5524n  699.9995m  109.3000m 
  109.40000m   14.5524n  699.9995m  109.4000m 
  109.50000m   14.5524n  699.9995m  109.5000m 
  109.60000m   14.5524n  699.9995m  109.6000m 
  109.70000m   14.5524n  699.9995m  109.7000m 
  109.80000m   14.5524n  699.9995m  109.8000m 
  109.90000m   14.5524n  699.9995m  109.9000m 
  110.00000m   14.5524n  699.9995m  110.0000m 
  110.10000m   14.5524n  699.9995m  110.1000m 
  110.20000m   14.5524n  699.9995m  110.2000m 
  110.30000m   14.5524n  699.9995m  110.3000m 
  110.40000m   14.5524n  699.9995m  110.4000m 
  110.50000m   14.5524n  699.9995m  110.5000m 
  110.60000m   14.5524n  699.9995m  110.6000m 
  110.70000m   14.5524n  699.9995m  110.7000m 
  110.80000m   14.5524n  699.9995m  110.8000m 
  110.90000m   14.5524n  699.9995m  110.9000m 
  111.00000m   14.5524n  699.9995m  111.0000m 
  111.10000m   14.5524n  699.9995m  111.1000m 
  111.20000m   14.5524n  699.9995m  111.2000m 
  111.30000m   14.5524n  699.9995m  111.3000m 
  111.40000m   14.5524n  699.9995m  111.4000m 
  111.50000m   14.5524n  699.9995m  111.5000m 
  111.60000m   14.5524n  699.9995m  111.6000m 
  111.70000m   14.5524n  699.9995m  111.7000m 
  111.80000m   14.5524n  699.9995m  111.8000m 
  111.90000m   14.5524n  699.9995m  111.9000m 
  112.00000m   14.5524n  699.9995m  112.0000m 
  112.10000m   14.5524n  699.9995m  112.1000m 
  112.20000m   14.5524n  699.9994m  112.2000m 
  112.30000m   14.5524n  699.9994m  112.3000m 
  112.40000m   14.5524n  699.9994m  112.4000m 
  112.50000m   14.5524n  699.9994m  112.5000m 
  112.60000m   14.5524n  699.9994m  112.6000m 
  112.70000m   14.5524n  699.9994m  112.7000m 
  112.80000m   14.5524n  699.9994m  112.8000m 
  112.90000m   14.5524n  699.9994m  112.9000m 
  113.00000m   14.5524n  699.9994m  113.0000m 
  113.10000m   14.5524n  699.9994m  113.1000m 
  113.20000m   14.5524n  699.9994m  113.2000m 
  113.30000m   14.5524n  699.9994m  113.3000m 
  113.40000m   14.5524n  699.9994m  113.4000m 
  113.50000m   14.5524n  699.9994m  113.5000m 
  113.60000m   14.5524n  699.9994m  113.6000m 
  113.70000m   14.5524n  699.9994m  113.7000m 
  113.80000m   14.5524n  699.9994m  113.8000m 
  113.90000m   14.5524n  699.9994m  113.9000m 
  114.00000m   14.5524n  699.9994m  114.0000m 
  114.10000m   14.5524n  699.9994m  114.1000m 
  114.20000m   14.5524n  699.9994m  114.2000m 
  114.30000m   14.5524n  699.9994m  114.3000m 
  114.40000m   14.5524n  699.9994m  114.4000m 
  114.50000m   14.5524n  699.9994m  114.5000m 
  114.60000m   14.5524n  699.9994m  114.6000m 
  114.70000m   14.5524n  699.9994m  114.7000m 
  114.80000m   14.5524n  699.9994m  114.8000m 
  114.90000m   14.5524n  699.9994m  114.9000m 
  115.00000m   14.5524n  699.9994m  115.0000m 
  115.10000m   14.5524n  699.9994m  115.1000m 
  115.20000m   14.5524n  699.9994m  115.2000m 
  115.30000m   14.5524n  699.9994m  115.3000m 
  115.40000m   14.5524n  699.9994m  115.4000m 
  115.50000m   14.5525n  699.9994m  115.5000m 
  115.60000m   14.5525n  699.9994m  115.6000m 
  115.70000m   14.5525n  699.9994m  115.7000m 
  115.80000m   14.5525n  699.9994m  115.8000m 
  115.90000m   14.5525n  699.9994m  115.9000m 
  116.00000m   14.5525n  699.9994m  116.0000m 
  116.10000m   14.5525n  699.9994m  116.1000m 
  116.20000m   14.5525n  699.9994m  116.2000m 
  116.30000m   14.5525n  699.9993m  116.3000m 
  116.40000m   14.5525n  699.9993m  116.4000m 
  116.50000m   14.5525n  699.9993m  116.5000m 
  116.60000m   14.5525n  699.9993m  116.6000m 
  116.70000m   14.5525n  699.9993m  116.7000m 
  116.80000m   14.5525n  699.9993m  116.8000m 
  116.90000m   14.5525n  699.9993m  116.9000m 
  117.00000m   14.5525n  699.9993m  117.0000m 
  117.10000m   14.5525n  699.9993m  117.1000m 
  117.20000m   14.5525n  699.9993m  117.2000m 
  117.30000m   14.5525n  699.9993m  117.3000m 
  117.40000m   14.5525n  699.9993m  117.4000m 
  117.50000m   14.5525n  699.9993m  117.5000m 
  117.60000m   14.5525n  699.9993m  117.6000m 
  117.70000m   14.5525n  699.9993m  117.7000m 
  117.80000m   14.5525n  699.9993m  117.8000m 
  117.90000m   14.5525n  699.9993m  117.9000m 
  118.00000m   14.5525n  699.9993m  118.0000m 
  118.10000m   14.5525n  699.9993m  118.1000m 
  118.20000m   14.5525n  699.9993m  118.2000m 
  118.30000m   14.5525n  699.9993m  118.3000m 
  118.40000m   14.5525n  699.9993m  118.4000m 
  118.50000m   14.5525n  699.9993m  118.5000m 
  118.60000m   14.5525n  699.9993m  118.6000m 
  118.70000m   14.5525n  699.9993m  118.7000m 
  118.80000m   14.5525n  699.9993m  118.8000m 
  118.90000m   14.5525n  699.9993m  118.9000m 
  119.00000m   14.5525n  699.9993m  119.0000m 
  119.10000m   14.5525n  699.9993m  119.1000m 
  119.20000m   14.5525n  699.9993m  119.2000m 
  119.30000m   14.5525n  699.9993m  119.3000m 
  119.40000m   14.5525n  699.9993m  119.4000m 
  119.50000m   14.5525n  699.9993m  119.5000m 
  119.60000m   14.5525n  699.9993m  119.6000m 
  119.70000m   14.5525n  699.9993m  119.7000m 
  119.80000m   14.5525n  699.9993m  119.8000m 
  119.90000m   14.5525n  699.9992m  119.9000m 
  120.00000m   14.5525n  699.9992m  120.0000m 
  120.10000m   14.5525n  699.9992m  120.1000m 
  120.20000m   14.5525n  699.9992m  120.2000m 
  120.30000m   14.5525n  699.9992m  120.3000m 
  120.40000m   14.5525n  699.9992m  120.4000m 
  120.50000m   14.5525n  699.9992m  120.5000m 
  120.60000m   14.5525n  699.9992m  120.6000m 
  120.70000m   14.5525n  699.9992m  120.7000m 
  120.80000m   14.5525n  699.9992m  120.8000m 
  120.90000m   14.5525n  699.9992m  120.9000m 
  121.00000m   14.5525n  699.9992m  121.0000m 
  121.10000m   14.5525n  699.9992m  121.1000m 
  121.20000m   14.5525n  699.9992m  121.2000m 
  121.30000m   14.5525n  699.9992m  121.3000m 
  121.40000m   14.5525n  699.9992m  121.4000m 
  121.50000m   14.5525n  699.9992m  121.5000m 
  121.60000m   14.5525n  699.9992m  121.6000m 
  121.70000m   14.5525n  699.9992m  121.7000m 
  121.80000m   14.5525n  699.9992m  121.8000m 
  121.90000m   14.5525n  699.9992m  121.9000m 
  122.00000m   14.5525n  699.9992m  122.0000m 
  122.10000m   14.5525n  699.9992m  122.1000m 
  122.20000m   14.5525n  699.9992m  122.2000m 
  122.30000m   14.5525n  699.9992m  122.3000m 
  122.40000m   14.5525n  699.9992m  122.4000m 
  122.50000m   14.5526n  699.9992m  122.5000m 
  122.60000m   14.5526n  699.9992m  122.6000m 
  122.70000m   14.5526n  699.9992m  122.7000m 
  122.80000m   14.5526n  699.9992m  122.8000m 
  122.90000m   14.5526n  699.9992m  122.9000m 
  123.00000m   14.5526n  699.9991m  123.0000m 
  123.10000m   14.5526n  699.9991m  123.1000m 
  123.20000m   14.5526n  699.9991m  123.2000m 
  123.30000m   14.5526n  699.9991m  123.3000m 
  123.40000m   14.5526n  699.9991m  123.4000m 
  123.50000m   14.5526n  699.9991m  123.5000m 
  123.60000m   14.5526n  699.9991m  123.6000m 
  123.70000m   14.5526n  699.9991m  123.7000m 
  123.80000m   14.5526n  699.9991m  123.8000m 
  123.90000m   14.5526n  699.9991m  123.9000m 
  124.00000m   14.5526n  699.9991m  124.0000m 
  124.10000m   14.5526n  699.9991m  124.1000m 
  124.20000m   14.5526n  699.9991m  124.2000m 
  124.30000m   14.5526n  699.9991m  124.3000m 
  124.40000m   14.5526n  699.9991m  124.4000m 
  124.50000m   14.5526n  699.9991m  124.5000m 
  124.60000m   14.5526n  699.9991m  124.6000m 
  124.70000m   14.5526n  699.9991m  124.7000m 
  124.80000m   14.5526n  699.9991m  124.8000m 
  124.90000m   14.5526n  699.9991m  124.9000m 
  125.00000m   14.5526n  699.9991m  125.0000m 
  125.10000m   14.5526n  699.9991m  125.1000m 
  125.20000m   14.5526n  699.9991m  125.2000m 
  125.30000m   14.5526n  699.9991m  125.3000m 
  125.40000m   14.5526n  699.9991m  125.4000m 
  125.50000m   14.5526n  699.9991m  125.5000m 
  125.60000m   14.5526n  699.9991m  125.6000m 
  125.70000m   14.5526n  699.9990m  125.7000m 
  125.80000m   14.5526n  699.9990m  125.8000m 
  125.90000m   14.5526n  699.9990m  125.9000m 
  126.00000m   14.5526n  699.9990m  126.0000m 
  126.10000m   14.5526n  699.9990m  126.1000m 
  126.20000m   14.5526n  699.9990m  126.2000m 
  126.30000m   14.5526n  699.9990m  126.3000m 
  126.40000m   14.5526n  699.9990m  126.4000m 
  126.50000m   14.5526n  699.9990m  126.5000m 
  126.60000m   14.5526n  699.9990m  126.6000m 
  126.70000m   14.5526n  699.9990m  126.7000m 
  126.80000m   14.5526n  699.9990m  126.8000m 
  126.90000m   14.5526n  699.9990m  126.9000m 
  127.00000m   14.5526n  699.9990m  127.0000m 
  127.10000m   14.5526n  699.9990m  127.1000m 
  127.20000m   14.5526n  699.9990m  127.2000m 
  127.30000m   14.5526n  699.9990m  127.3000m 
  127.40000m   14.5526n  699.9990m  127.4000m 
  127.50000m   14.5526n  699.9990m  127.5000m 
  127.60000m   14.5526n  699.9990m  127.6000m 
  127.70000m   14.5526n  699.9990m  127.7000m 
  127.80000m   14.5526n  699.9990m  127.8000m 
  127.90000m   14.5526n  699.9990m  127.9000m 
  128.00000m   14.5527n  699.9990m  128.0000m 
  128.10000m   14.5527n  699.9990m  128.1000m 
  128.20000m   14.5527n  699.9989m  128.2000m 
  128.30000m   14.5527n  699.9989m  128.3000m 
  128.40000m   14.5527n  699.9989m  128.4000m 
  128.50000m   14.5527n  699.9989m  128.5000m 
  128.60000m   14.5527n  699.9989m  128.6000m 
  128.70000m   14.5527n  699.9989m  128.7000m 
  128.80000m   14.5527n  699.9989m  128.8000m 
  128.90000m   14.5527n  699.9989m  128.9000m 
  129.00000m   14.5527n  699.9989m  129.0000m 
  129.10000m   14.5527n  699.9989m  129.1000m 
  129.20000m   14.5527n  699.9989m  129.2000m 
  129.30000m   14.5527n  699.9989m  129.3000m 
  129.40000m   14.5527n  699.9989m  129.4000m 
  129.50000m   14.5527n  699.9989m  129.5000m 
  129.60000m   14.5527n  699.9989m  129.6000m 
  129.70000m   14.5527n  699.9989m  129.7000m 
  129.80000m   14.5527n  699.9989m  129.8000m 
  129.90000m   14.5527n  699.9989m  129.9000m 
  130.00000m   14.5527n  699.9989m  130.0000m 
  130.10000m   14.5527n  699.9989m  130.1000m 
  130.20000m   14.5527n  699.9989m  130.2000m 
  130.30000m   14.5527n  699.9989m  130.3000m 
  130.40000m   14.5527n  699.9988m  130.4000m 
  130.50000m   14.5527n  699.9988m  130.5000m 
  130.60000m   14.5527n  699.9988m  130.6000m 
  130.70000m   14.5527n  699.9988m  130.7000m 
  130.80000m   14.5527n  699.9988m  130.8000m 
  130.90000m   14.5527n  699.9988m  130.9000m 
  131.00000m   14.5527n  699.9988m  131.0000m 
  131.10000m   14.5527n  699.9988m  131.1000m 
  131.20000m   14.5527n  699.9988m  131.2000m 
  131.30000m   14.5527n  699.9988m  131.3000m 
  131.40000m   14.5527n  699.9988m  131.4000m 
  131.50000m   14.5527n  699.9988m  131.5000m 
  131.60000m   14.5527n  699.9988m  131.6000m 
  131.70000m   14.5527n  699.9988m  131.7000m 
  131.80000m   14.5527n  699.9988m  131.8000m 
  131.90000m   14.5527n  699.9988m  131.9000m 
  132.00000m   14.5527n  699.9988m  132.0000m 
  132.10000m   14.5527n  699.9988m  132.1000m 
  132.20000m   14.5527n  699.9988m  132.2000m 
  132.30000m   14.5527n  699.9988m  132.3000m 
  132.40000m   14.5528n  699.9988m  132.4000m 
  132.50000m   14.5528n  699.9987m  132.5000m 
  132.60000m   14.5528n  699.9987m  132.6000m 
  132.70000m   14.5528n  699.9987m  132.7000m 
  132.80000m   14.5528n  699.9987m  132.8000m 
  132.90000m   14.5528n  699.9987m  132.9000m 
  133.00000m   14.5528n  699.9987m  133.0000m 
  133.10000m   14.5528n  699.9987m  133.1000m 
  133.20000m   14.5528n  699.9987m  133.2000m 
  133.30000m   14.5528n  699.9987m  133.3000m 
  133.40000m   14.5528n  699.9987m  133.4000m 
  133.50000m   14.5528n  699.9987m  133.5000m 
  133.60000m   14.5528n  699.9987m  133.6000m 
  133.70000m   14.5528n  699.9987m  133.7000m 
  133.80000m   14.5528n  699.9987m  133.8000m 
  133.90000m   14.5528n  699.9987m  133.9000m 
  134.00000m   14.5528n  699.9987m  134.0000m 
  134.10000m   14.5528n  699.9987m  134.1000m 
  134.20000m   14.5528n  699.9987m  134.2000m 
  134.30000m   14.5528n  699.9987m  134.3000m 
  134.40000m   14.5528n  699.9986m  134.4000m 
  134.50000m   14.5528n  699.9986m  134.5000m 
  134.60000m   14.5528n  699.9986m  134.6000m 
  134.70000m   14.5528n  699.9986m  134.7000m 
  134.80000m   14.5528n  699.9986m  134.8000m 
  134.90000m   14.5528n  699.9986m  134.9000m 
  135.00000m   14.5528n  699.9986m  135.0000m 
  135.10000m   14.5528n  699.9986m  135.1000m 
  135.20000m   14.5528n  699.9986m  135.2000m 
  135.30000m   14.5528n  699.9986m  135.3000m 
  135.40000m   14.5528n  699.9986m  135.4000m 
  135.50000m   14.5528n  699.9986m  135.5000m 
  135.60000m   14.5528n  699.9986m  135.6000m 
  135.70000m   14.5528n  699.9986m  135.7000m 
  135.80000m   14.5528n  699.9986m  135.8000m 
  135.90000m   14.5528n  699.9986m  135.9000m 
  136.00000m   14.5528n  699.9986m  136.0000m 
  136.10000m   14.5528n  699.9985m  136.1000m 
  136.20000m   14.5529n  699.9985m  136.2000m 
  136.30000m   14.5529n  699.9985m  136.3000m 
  136.40000m   14.5529n  699.9985m  136.4000m 
  136.50000m   14.5529n  699.9985m  136.5000m 
  136.60000m   14.5529n  699.9985m  136.6000m 
  136.70000m   14.5529n  699.9985m  136.7000m 
  136.80000m   14.5529n  699.9985m  136.8000m 
  136.90000m   14.5529n  699.9985m  136.9000m 
  137.00000m   14.5529n  699.9985m  137.0000m 
  137.10000m   14.5529n  699.9985m  137.1000m 
  137.20000m   14.5529n  699.9985m  137.2000m 
  137.30000m   14.5529n  699.9985m  137.3000m 
  137.40000m   14.5529n  699.9985m  137.4000m 
  137.50000m   14.5529n  699.9985m  137.5000m 
  137.60000m   14.5529n  699.9985m  137.6000m 
  137.70000m   14.5529n  699.9985m  137.7000m 
  137.80000m   14.5529n  699.9984m  137.8000m 
  137.90000m   14.5529n  699.9984m  137.9000m 
  138.00000m   14.5529n  699.9984m  138.0000m 
  138.10000m   14.5529n  699.9984m  138.1000m 
  138.20000m   14.5529n  699.9984m  138.2000m 
  138.30000m   14.5529n  699.9984m  138.3000m 
  138.40000m   14.5529n  699.9984m  138.4000m 
  138.50000m   14.5529n  699.9984m  138.5000m 
  138.60000m   14.5529n  699.9984m  138.6000m 
  138.70000m   14.5529n  699.9984m  138.7000m 
  138.80000m   14.5529n  699.9984m  138.8000m 
  138.90000m   14.5529n  699.9984m  138.9000m 
  139.00000m   14.5529n  699.9984m  139.0000m 
  139.10000m   14.5529n  699.9984m  139.1000m 
  139.20000m   14.5529n  699.9984m  139.2000m 
  139.30000m   14.5529n  699.9983m  139.3000m 
  139.40000m   14.5530n  699.9983m  139.4000m 
  139.50000m   14.5530n  699.9983m  139.5000m 
  139.60000m   14.5530n  699.9983m  139.6000m 
  139.70000m   14.5530n  699.9983m  139.7000m 
  139.80000m   14.5530n  699.9983m  139.8000m 
  139.90000m   14.5530n  699.9983m  139.9000m 
  140.00000m   14.5530n  699.9983m  140.0000m 
  140.10000m   14.5530n  699.9983m  140.1000m 
  140.20000m   14.5530n  699.9983m  140.2000m 
  140.30000m   14.5530n  699.9983m  140.3000m 
  140.40000m   14.5530n  699.9983m  140.4000m 
  140.50000m   14.5530n  699.9983m  140.5000m 
  140.60000m   14.5530n  699.9983m  140.6000m 
  140.70000m   14.5530n  699.9982m  140.7000m 
  140.80000m   14.5530n  699.9982m  140.8000m 
  140.90000m   14.5530n  699.9982m  140.9000m 
  141.00000m   14.5530n  699.9982m  141.0000m 
  141.10000m   14.5530n  699.9982m  141.1000m 
  141.20000m   14.5530n  699.9982m  141.2000m 
  141.30000m   14.5530n  699.9982m  141.3000m 
  141.40000m   14.5530n  699.9982m  141.4000m 
  141.50000m   14.5530n  699.9982m  141.5000m 
  141.60000m   14.5530n  699.9982m  141.6000m 
  141.70000m   14.5530n  699.9982m  141.7000m 
  141.80000m   14.5530n  699.9982m  141.8000m 
  141.90000m   14.5530n  699.9982m  141.9000m 
  142.00000m   14.5530n  699.9982m  142.0000m 
  142.10000m   14.5530n  699.9981m  142.1000m 
  142.20000m   14.5530n  699.9981m  142.2000m 
  142.30000m   14.5531n  699.9981m  142.3000m 
  142.40000m   14.5531n  699.9981m  142.4000m 
  142.50000m   14.5531n  699.9981m  142.5000m 
  142.60000m   14.5531n  699.9981m  142.6000m 
  142.70000m   14.5531n  699.9981m  142.7000m 
  142.80000m   14.5531n  699.9981m  142.8000m 
  142.90000m   14.5531n  699.9981m  142.9000m 
  143.00000m   14.5531n  699.9981m  143.0000m 
  143.10000m   14.5531n  699.9981m  143.1000m 
  143.20000m   14.5531n  699.9981m  143.2000m 
  143.30000m   14.5531n  699.9981m  143.3000m 
  143.40000m   14.5531n  699.9980m  143.4000m 
  143.50000m   14.5531n  699.9980m  143.5000m 
  143.60000m   14.5531n  699.9980m  143.6000m 
  143.70000m   14.5531n  699.9980m  143.7000m 
  143.80000m   14.5531n  699.9980m  143.8000m 
  143.90000m   14.5531n  699.9980m  143.9000m 
  144.00000m   14.5531n  699.9980m  144.0000m 
  144.10000m   14.5531n  699.9980m  144.1000m 
  144.20000m   14.5531n  699.9980m  144.2000m 
  144.30000m   14.5531n  699.9980m  144.3000m 
  144.40000m   14.5531n  699.9980m  144.4000m 
  144.50000m   14.5531n  699.9980m  144.5000m 
  144.60000m   14.5531n  699.9979m  144.6000m 
  144.70000m   14.5531n  699.9979m  144.7000m 
  144.80000m   14.5532n  699.9979m  144.8000m 
  144.90000m   14.5532n  699.9979m  144.9000m 
  145.00000m   14.5532n  699.9979m  145.0000m 
  145.10000m   14.5532n  699.9979m  145.1000m 
  145.20000m   14.5532n  699.9979m  145.2000m 
  145.30000m   14.5532n  699.9979m  145.3000m 
  145.40000m   14.5532n  699.9979m  145.4000m 
  145.50000m   14.5532n  699.9979m  145.5000m 
  145.60000m   14.5532n  699.9979m  145.6000m 
  145.70000m   14.5532n  699.9979m  145.7000m 
  145.80000m   14.5532n  699.9978m  145.8000m 
  145.90000m   14.5532n  699.9978m  145.9000m 
  146.00000m   14.5532n  699.9978m  146.0000m 
  146.10000m   14.5532n  699.9978m  146.1000m 
  146.20000m   14.5532n  699.9978m  146.2000m 
  146.30000m   14.5532n  699.9978m  146.3000m 
  146.40000m   14.5532n  699.9978m  146.4000m 
  146.50000m   14.5532n  699.9978m  146.5000m 
  146.60000m   14.5532n  699.9978m  146.6000m 
  146.70000m   14.5532n  699.9978m  146.7000m 
  146.80000m   14.5532n  699.9978m  146.8000m 
  146.90000m   14.5532n  699.9977m  146.9000m 
  147.00000m   14.5532n  699.9977m  147.0000m 
  147.10000m   14.5533n  699.9977m  147.1000m 
  147.20000m   14.5533n  699.9977m  147.2000m 
  147.30000m   14.5533n  699.9977m  147.3000m 
  147.40000m   14.5533n  699.9977m  147.4000m 
  147.50000m   14.5533n  699.9977m  147.5000m 
  147.60000m   14.5533n  699.9977m  147.6000m 
  147.70000m   14.5533n  699.9977m  147.7000m 
  147.80000m   14.5533n  699.9977m  147.8000m 
  147.90000m   14.5533n  699.9976m  147.9000m 
  148.00000m   14.5533n  699.9976m  148.0000m 
  148.10000m   14.5533n  699.9976m  148.1000m 
  148.20000m   14.5533n  699.9976m  148.2000m 
  148.30000m   14.5533n  699.9976m  148.3000m 
  148.40000m   14.5533n  699.9976m  148.4000m 
  148.50000m   14.5533n  699.9976m  148.5000m 
  148.60000m   14.5533n  699.9976m  148.6000m 
  148.70000m   14.5533n  699.9976m  148.7000m 
  148.80000m   14.5533n  699.9976m  148.8000m 
  148.90000m   14.5533n  699.9975m  148.9000m 
  149.00000m   14.5533n  699.9975m  149.0000m 
  149.10000m   14.5533n  699.9975m  149.1000m 
  149.20000m   14.5534n  699.9975m  149.2000m 
  149.30000m   14.5534n  699.9975m  149.3000m 
  149.40000m   14.5534n  699.9975m  149.4000m 
  149.50000m   14.5534n  699.9975m  149.5000m 
  149.60000m   14.5534n  699.9975m  149.6000m 
  149.70000m   14.5534n  699.9975m  149.7000m 
  149.80000m   14.5534n  699.9975m  149.8000m 
  149.90000m   14.5534n  699.9974m  149.9000m 
  150.00000m   14.5534n  699.9974m  150.0000m 
  150.10000m   14.5534n  699.9974m  150.1000m 
  150.20000m   14.5534n  699.9974m  150.2000m 
  150.30000m   14.5534n  699.9974m  150.3000m 
  150.40000m   14.5534n  699.9974m  150.4000m 
  150.50000m   14.5534n  699.9974m  150.5000m 
  150.60000m   14.5534n  699.9974m  150.6000m 
  150.70000m   14.5534n  699.9974m  150.7000m 
  150.80000m   14.5534n  699.9973m  150.8000m 
  150.90000m   14.5534n  699.9973m  150.9000m 
  151.00000m   14.5534n  699.9973m  151.0000m 
  151.10000m   14.5535n  699.9973m  151.1000m 
  151.20000m   14.5535n  699.9973m  151.2000m 
  151.30000m   14.5535n  699.9973m  151.3000m 
  151.40000m   14.5535n  699.9973m  151.4000m 
  151.50000m   14.5535n  699.9973m  151.5000m 
  151.60000m   14.5535n  699.9973m  151.6000m 
  151.70000m   14.5535n  699.9972m  151.7000m 
  151.80000m   14.5535n  699.9972m  151.8000m 
  151.90000m   14.5535n  699.9972m  151.9000m 
  152.00000m   14.5535n  699.9972m  152.0000m 
  152.10000m   14.5535n  699.9972m  152.1000m 
  152.20000m   14.5535n  699.9972m  152.2000m 
  152.30000m   14.5535n  699.9972m  152.3000m 
  152.40000m   14.5535n  699.9972m  152.4000m 
  152.50000m   14.5535n  699.9972m  152.5000m 
  152.60000m   14.5535n  699.9971m  152.6000m 
  152.70000m   14.5535n  699.9971m  152.7000m 
  152.80000m   14.5535n  699.9971m  152.8000m 
  152.90000m   14.5536n  699.9971m  152.9000m 
  153.00000m   14.5536n  699.9971m  153.0000m 
  153.10000m   14.5536n  699.9971m  153.1000m 
  153.20000m   14.5536n  699.9971m  153.2000m 
  153.30000m   14.5536n  699.9971m  153.3000m 
  153.40000m   14.5536n  699.9970m  153.4000m 
  153.50000m   14.5536n  699.9970m  153.5000m 
  153.60000m   14.5536n  699.9970m  153.6000m 
  153.70000m   14.5536n  699.9970m  153.7000m 
  153.80000m   14.5536n  699.9970m  153.8000m 
  153.90000m   14.5536n  699.9970m  153.9000m 
  154.00000m   14.5536n  699.9970m  154.0000m 
  154.10000m   14.5536n  699.9970m  154.1000m 
  154.20000m   14.5536n  699.9969m  154.2000m 
  154.30000m   14.5536n  699.9969m  154.3000m 
  154.40000m   14.5536n  699.9969m  154.4000m 
  154.50000m   14.5536n  699.9969m  154.5000m 
  154.60000m   14.5537n  699.9969m  154.6000m 
  154.70000m   14.5537n  699.9969m  154.7000m 
  154.80000m   14.5537n  699.9969m  154.8000m 
  154.90000m   14.5537n  699.9969m  154.9000m 
  155.00000m   14.5537n  699.9968m  155.0000m 
  155.10000m   14.5537n  699.9968m  155.1000m 
  155.20000m   14.5537n  699.9968m  155.2000m 
  155.30000m   14.5537n  699.9968m  155.3000m 
  155.40000m   14.5537n  699.9968m  155.4000m 
  155.50000m   14.5537n  699.9968m  155.5000m 
  155.60000m   14.5537n  699.9968m  155.6000m 
  155.70000m   14.5537n  699.9968m  155.7000m 
  155.80000m   14.5537n  699.9967m  155.8000m 
  155.90000m   14.5537n  699.9967m  155.9000m 
  156.00000m   14.5537n  699.9967m  156.0000m 
  156.10000m   14.5538n  699.9967m  156.1000m 
  156.20000m   14.5538n  699.9967m  156.2000m 
  156.30000m   14.5538n  699.9967m  156.3000m 
  156.40000m   14.5538n  699.9967m  156.4000m 
  156.50000m   14.5538n  699.9966m  156.5000m 
  156.60000m   14.5538n  699.9966m  156.6000m 
  156.70000m   14.5538n  699.9966m  156.7000m 
  156.80000m   14.5538n  699.9966m  156.8000m 
  156.90000m   14.5538n  699.9966m  156.9000m 
  157.00000m   14.5538n  699.9966m  157.0000m 
  157.10000m   14.5538n  699.9966m  157.1000m 
  157.20000m   14.5538n  699.9965m  157.2000m 
  157.30000m   14.5538n  699.9965m  157.3000m 
  157.40000m   14.5538n  699.9965m  157.4000m 
  157.50000m   14.5538n  699.9965m  157.5000m 
  157.60000m   14.5539n  699.9965m  157.6000m 
  157.70000m   14.5539n  699.9965m  157.7000m 
  157.80000m   14.5539n  699.9965m  157.8000m 
  157.90000m   14.5539n  699.9964m  157.9000m 
  158.00000m   14.5539n  699.9964m  158.0000m 
  158.10000m   14.5539n  699.9964m  158.1000m 
  158.20000m   14.5539n  699.9964m  158.2000m 
  158.30000m   14.5539n  699.9964m  158.3000m 
  158.40000m   14.5539n  699.9964m  158.4000m 
  158.50000m   14.5539n  699.9964m  158.5000m 
  158.60000m   14.5539n  699.9963m  158.6000m 
  158.70000m   14.5539n  699.9963m  158.7000m 
  158.80000m   14.5539n  699.9963m  158.8000m 
  158.90000m   14.5540n  699.9963m  158.9000m 
  159.00000m   14.5540n  699.9963m  159.0000m 
  159.10000m   14.5540n  699.9963m  159.1000m 
  159.20000m   14.5540n  699.9962m  159.2000m 
  159.30000m   14.5540n  699.9962m  159.3000m 
  159.40000m   14.5540n  699.9962m  159.4000m 
  159.50000m   14.5540n  699.9962m  159.5000m 
  159.60000m   14.5540n  699.9962m  159.6000m 
  159.70000m   14.5540n  699.9962m  159.7000m 
  159.80000m   14.5540n  699.9962m  159.8000m 
  159.90000m   14.5540n  699.9961m  159.9000m 
  160.00000m   14.5540n  699.9961m  160.0000m 
  160.10000m   14.5540n  699.9961m  160.1000m 
  160.20000m   14.5541n  699.9961m  160.2000m 
  160.30000m   14.5541n  699.9961m  160.3000m 
  160.40000m   14.5541n  699.9961m  160.4000m 
  160.50000m   14.5541n  699.9960m  160.5000m 
  160.60000m   14.5541n  699.9960m  160.6000m 
  160.70000m   14.5541n  699.9960m  160.7000m 
  160.80000m   14.5541n  699.9960m  160.8000m 
  160.90000m   14.5541n  699.9960m  160.9000m 
  161.00000m   14.5541n  699.9960m  161.0000m 
  161.10000m   14.5541n  699.9959m  161.1000m 
  161.20000m   14.5541n  699.9959m  161.2000m 
  161.30000m   14.5541n  699.9959m  161.3000m 
  161.40000m   14.5541n  699.9959m  161.4000m 
  161.50000m   14.5542n  699.9959m  161.5000m 
  161.60000m   14.5542n  699.9959m  161.6000m 
  161.70000m   14.5542n  699.9958m  161.7000m 
  161.80000m   14.5542n  699.9958m  161.8000m 
  161.90000m   14.5542n  699.9958m  161.9000m 
  162.00000m   14.5542n  699.9958m  162.0000m 
  162.10000m   14.5542n  699.9958m  162.1000m 
  162.20000m   14.5542n  699.9958m  162.2000m 
  162.30000m   14.5542n  699.9957m  162.3000m 
  162.40000m   14.5542n  699.9957m  162.4000m 
  162.50000m   14.5542n  699.9957m  162.5000m 
  162.60000m   14.5543n  699.9957m  162.6000m 
  162.70000m   14.5543n  699.9957m  162.7000m 
  162.80000m   14.5543n  699.9956m  162.8000m 
  162.90000m   14.5543n  699.9956m  162.9000m 
  163.00000m   14.5543n  699.9956m  163.0000m 
  163.10000m   14.5543n  699.9956m  163.1000m 
  163.20000m   14.5543n  699.9956m  163.2000m 
  163.30000m   14.5543n  699.9956m  163.3000m 
  163.40000m   14.5543n  699.9955m  163.4000m 
  163.50000m   14.5543n  699.9955m  163.5000m 
  163.60000m   14.5543n  699.9955m  163.6000m 
  163.70000m   14.5543n  699.9955m  163.7000m 
  163.80000m   14.5544n  699.9955m  163.8000m 
  163.90000m   14.5544n  699.9954m  163.9000m 
  164.00000m   14.5544n  699.9954m  164.0000m 
  164.10000m   14.5544n  699.9954m  164.1000m 
  164.20000m   14.5544n  699.9954m  164.2000m 
  164.30000m   14.5544n  699.9954m  164.3000m 
  164.40000m   14.5544n  699.9953m  164.4000m 
  164.50000m   14.5544n  699.9953m  164.5000m 
  164.60000m   14.5544n  699.9953m  164.6000m 
  164.70000m   14.5544n  699.9953m  164.7000m 
  164.80000m   14.5545n  699.9953m  164.8000m 
  164.90000m   14.5545n  699.9952m  164.9000m 
  165.00000m   14.5545n  699.9952m  165.0000m 
  165.10000m   14.5545n  699.9952m  165.1000m 
  165.20000m   14.5545n  699.9952m  165.2000m 
  165.30000m   14.5545n  699.9952m  165.3000m 
  165.40000m   14.5545n  699.9951m  165.4000m 
  165.50000m   14.5545n  699.9951m  165.5000m 
  165.60000m   14.5545n  699.9951m  165.6000m 
  165.70000m   14.5545n  699.9951m  165.7000m 
  165.80000m   14.5546n  699.9951m  165.8000m 
  165.90000m   14.5546n  699.9950m  165.9000m 
  166.00000m   14.5546n  699.9950m  166.0000m 
  166.10000m   14.5546n  699.9950m  166.1000m 
  166.20000m   14.5546n  699.9950m  166.2000m 
[...]
  667.70000m  107.0519m  124.4130m  667.7000m 
  667.80000m  107.0698m  124.3910m  667.8000m 
  667.90000m  107.0877m  124.3691m  667.9000m 
  668.00000m  107.1056m  124.3472m  668.0000m 
  668.10000m  107.1235m  124.3253m  668.1000m 
  668.20000m  107.1413m  124.3035m  668.2000m 
  668.30000m  107.1592m  124.2816m  668.3000m 
  668.40000m  107.1770m  124.2598m  668.4000m 
  668.50000m  107.1948m  124.2380m  668.5000m 
  668.60000m  107.2126m  124.2162m  668.6000m 
  668.70000m  107.2304m  124.1944m  668.7000m 
  668.80000m  107.2482m  124.1727m  668.8000m 
  668.90000m  107.2660m  124.1509m  668.9000m 
  669.00000m  107.2837m  124.1292m  669.0000m 
  669.10000m  107.3015m  124.1075m  669.1000m 
  669.20000m  107.3192m  124.0859m  669.2000m 
  669.30000m  107.3369m  124.0642m  669.3000m 
  669.40000m  107.3546m  124.0426m  669.4000m 
  669.50000m  107.3723m  124.0209m  669.5000m 
  669.60000m  107.3900m  123.9993m  669.6000m 
  669.70000m  107.4076m  123.9777m  669.7000m 
  669.80000m  107.4253m  123.9562m  669.8000m 
  669.90000m  107.4429m  123.9346m  669.9000m 
  670.00000m  107.4605m  123.9131m  670.0000m 
  670.10000m  107.4781m  123.8916m  670.1000m 
  670.20000m  107.4957m  123.8701m  670.2000m 
  670.30000m  107.5133m  123.8486m  670.3000m 
  670.40000m  107.5309m  123.8271m  670.4000m 
  670.50000m  107.5485m  123.8057m  670.5000m 
  670.60000m  107.5660m  123.7843m  670.6000m 
  670.70000m  107.5835m  123.7629m  670.7000m 
  670.80000m  107.6011m  123.7415m  670.8000m 
  670.90000m  107.6186m  123.7201m  670.9000m 
  671.00000m  107.6361m  123.6987m  671.0000m 
  671.10000m  107.6536m  123.6774m  671.1000m 
  671.20000m  107.6710m  123.6561m  671.2000m 
  671.30000m  107.6885m  123.6348m  671.3000m 
  671.40000m  107.7059m  123.6135m  671.4000m 
  671.50000m  107.7234m  123.5922m  671.5000m 
  671.60000m  107.7408m  123.5710m  671.6000m 
  671.70000m  107.7582m  123.5498m  671.7000m 
  671.80000m  107.7756m  123.5286m  671.8000m 
  671.90000m  107.7930m  123.5074m  671.9000m 
  672.00000m  107.8103m  123.4862m  672.0000m 
  672.10000m  107.8277m  123.4650m  672.1000m 
  672.20000m  107.8451m  123.4439m  672.2000m 
  672.30000m  107.8624m  123.4228m  672.3000m 
  672.40000m  107.8797m  123.4017m  672.4000m 
  672.50000m  107.8970m  123.3806m  672.5000m 
  672.60000m  107.9143m  123.3595m  672.6000m 
  672.70000m  107.9316m  123.3384m  672.7000m 
  672.80000m  107.9489m  123.3174m  672.8000m 
  672.90000m  107.9661m  123.2964m  672.9000m 
  673.00000m  107.9834m  123.2754m  673.0000m 
  673.10000m  108.0006m  123.2544m  673.1000m 
  673.20000m  108.0178m  123.2334m  673.2000m 
  673.30000m  108.0350m  123.2125m  673.3000m 
  673.40000m  108.0522m  123.1916m  673.4000m 
  673.50000m  108.0694m  123.1706m  673.5000m 
  673.60000m  108.0866m  123.1498m  673.6000m 
  673.70000m  108.1037m  123.1289m  673.7000m 
  673.80000m  108.1209m  123.1080m  673.8000m 
  673.90000m  108.1380m  123.0872m  673.9000m 
  674.00000m  108.1552m  123.0663m  674.0000m 
  674.10000m  108.1723m  123.0455m  674.1000m 
  674.20000m  108.1894m  123.0247m  674.2000m 
  674.30000m  108.2064m  123.0040m  674.3000m 
  674.40000m  108.2235m  122.9832m  674.4000m 
  674.50000m  108.2406m  122.9625m  674.5000m 
  674.60000m  108.2576m  122.9417m  674.6000m 
  674.70000m  108.2747m  122.9210m  674.7000m 
  674.80000m  108.2917m  122.9003m  674.8000m 
  674.90000m  108.3087m  122.8797m  674.9000m 
  675.00000m  108.3257m  122.8590m  675.0000m 
  675.10000m  108.3427m  122.8384m  675.1000m 
  675.20000m  108.3597m  122.8178m  675.2000m 
  675.30000m  108.3766m  122.7972m  675.3000m 
  675.40000m  108.3936m  122.7766m  675.4000m 
  675.50000m  108.4105m  122.7560m  675.5000m 
  675.60000m  108.4275m  122.7354m  675.6000m 
  675.70000m  108.4444m  122.7149m  675.7000m 
  675.80000m  108.4613m  122.6944m  675.8000m 
  675.90000m  108.4782m  122.6739m  675.9000m 
  676.00000m  108.4950m  122.6534m  676.0000m 
  676.10000m  108.5119m  122.6329m  676.1000m 
  676.20000m  108.5288m  122.6125m  676.2000m 
  676.30000m  108.5456m  122.5920m  676.3000m 
  676.40000m  108.5624m  122.5716m  676.4000m 
  676.50000m  108.5793m  122.5512m  676.5000m 
  676.60000m  108.5961m  122.5308m  676.6000m 
  676.70000m  108.6129m  122.5105m  676.7000m 
  676.80000m  108.6296m  122.4901m  676.8000m 
  676.90000m  108.6464m  122.4698m  676.9000m 
  677.00000m  108.6632m  122.4495m  677.0000m 
  677.10000m  108.6799m  122.4292m  677.1000m 
  677.20000m  108.6967m  122.4089m  677.2000m 
  677.30000m  108.7134m  122.3886m  677.3000m 
  677.40000m  108.7301m  122.3684m  677.4000m 
  677.50000m  108.7468m  122.3481m  677.5000m 
  677.60000m  108.7635m  122.3279m  677.6000m 
  677.70000m  108.7802m  122.3077m  677.7000m 
  677.80000m  108.7968m  122.2875m  677.8000m 
  677.90000m  108.8135m  122.2673m  677.9000m 
  678.00000m  108.8301m  122.2472m  678.0000m 
  678.10000m  108.8467m  122.2271m  678.1000m 
  678.20000m  108.8634m  122.2069m  678.2000m 
  678.30000m  108.8800m  122.1868m  678.3000m 
  678.40000m  108.8966m  122.1668m  678.4000m 
  678.50000m  108.9131m  122.1467m  678.5000m 
  678.60000m  108.9297m  122.1266m  678.6000m 
  678.70000m  108.9463m  122.1066m  678.7000m 
  678.80000m  108.9628m  122.0866m  678.8000m 
  678.90000m  108.9793m  122.0666m  678.9000m 
  679.00000m  108.9959m  122.0466m  679.0000m 
  679.10000m  109.0124m  122.0266m  679.1000m 
  679.20000m  109.0289m  122.0067m  679.2000m 
  679.30000m  109.0454m  121.9867m  679.3000m 
  679.40000m  109.0618m  121.9668m  679.4000m 
  679.50000m  109.0783m  121.9469m  679.5000m 
  679.60000m  109.0948m  121.9270m  679.6000m 
  679.70000m  109.1112m  121.9071m  679.7000m 
  679.80000m  109.1276m  121.8873m  679.8000m 
  679.90000m  109.1440m  121.8674m  679.9000m 
  680.00000m  109.1604m  121.8476m  680.0000m 
  680.10000m  109.1768m  121.8278m  680.1000m 
  680.20000m  109.1932m  121.8080m  680.2000m 
  680.30000m  109.2096m  121.7882m  680.3000m 
  680.40000m  109.2260m  121.7685m  680.4000m 
  680.50000m  109.2423m  121.7487m  680.5000m 
  680.60000m  109.2586m  121.7290m  680.6000m 
  680.70000m  109.2750m  121.7093m  680.7000m 
  680.80000m  109.2913m  121.6896m  680.8000m 
  680.90000m  109.3076m  121.6699m  680.9000m 
  681.00000m  109.3239m  121.6502m  681.0000m 
  681.10000m  109.3401m  121.6306m  681.1000m 
  681.20000m  109.3564m  121.6109m  681.2000m 
  681.30000m  109.3727m  121.5913m  681.3000m 
  681.40000m  109.3889m  121.5717m  681.4000m 
  681.50000m  109.4051m  121.5521m  681.5000m 
  681.60000m  109.4214m  121.5326m  681.6000m 
  681.70000m  109.4376m  121.5130m  681.7000m 
  681.80000m  109.4538m  121.4935m  681.8000m 
  681.90000m  109.4700m  121.4740m  681.9000m 
  682.00000m  109.4861m  121.4544m  682.0000m 
  682.10000m  109.5023m  121.4350m  682.1000m 
  682.20000m  109.5185m  121.4155m  682.2000m 
  682.30000m  109.5346m  121.3960m  682.3000m 
  682.40000m  109.5507m  121.3766m  682.4000m 
  682.50000m  109.5668m  121.3572m  682.5000m 
  682.60000m  109.5829m  121.3377m  682.6000m 
  682.70000m  109.5990m  121.3183m  682.7000m 
  682.80000m  109.6151m  121.2990m  682.8000m 
  682.90000m  109.6312m  121.2796m  682.9000m 
  683.00000m  109.6473m  121.2603m  683.0000m 
  683.10000m  109.6633m  121.2409m  683.1000m 
  683.20000m  109.6794m  121.2216m  683.2000m 
  683.30000m  109.6954m  121.2023m  683.3000m 
  683.40000m  109.7114m  121.1830m  683.4000m 
  683.50000m  109.7274m  121.1637m  683.5000m 
  683.60000m  109.7434m  121.1445m  683.6000m 
  683.70000m  109.7594m  121.1252m  683.7000m 
  683.80000m  109.7754m  121.1060m  683.8000m 
  683.90000m  109.7913m  121.0868m  683.9000m 
  684.00000m  109.8073m  121.0676m  684.0000m 
  684.10000m  109.8232m  121.0484m  684.1000m 
  684.20000m  109.8391m  121.0293m  684.2000m 
  684.30000m  109.8550m  121.0101m  684.3000m 
  684.40000m  109.8709m  120.9910m  684.4000m 
  684.50000m  109.8868m  120.9719m  684.5000m 
  684.60000m  109.9027m  120.9528m  684.6000m 
  684.70000m  109.9186m  120.9337m  684.7000m 
  684.80000m  109.9345m  120.9146m  684.8000m 
  684.90000m  109.9503m  120.8956m  684.9000m 
  685.00000m  109.9661m  120.8765m  685.0000m 
  685.10000m  109.9820m  120.8575m  685.1000m 
  685.20000m  109.9978m  120.8385m  685.2000m 
  685.30000m  110.0136m  120.8195m  685.3000m 
  685.40000m  110.0294m  120.8005m  685.4000m 
  685.50000m  110.0452m  120.7816m  685.5000m 
  685.60000m  110.0609m  120.7626m  685.6000m 
  685.70000m  110.0767m  120.7437m  685.7000m 
  685.80000m  110.0924m  120.7247m  685.8000m 
  685.90000m  110.1082m  120.7058m  685.9000m 
  686.00000m  110.1239m  120.6870m  686.0000m 
  686.10000m  110.1396m  120.6681m  686.1000m 
  686.20000m  110.1553m  120.6492m  686.2000m 
  686.30000m  110.1710m  120.6304m  686.3000m 
  686.40000m  110.1867m  120.6116m  686.4000m 
  686.50000m  110.2024m  120.5927m  686.5000m 
  686.60000m  110.2180m  120.5739m  686.6000m 
  686.70000m  110.2337m  120.5552m  686.7000m 
  686.80000m  110.2493m  120.5364m  686.8000m 
  686.90000m  110.2650m  120.5176m  686.9000m 
  687.00000m  110.2806m  120.4989m  687.0000m 
  687.10000m  110.2962m  120.4802m  687.1000m 
  687.20000m  110.3118m  120.4615m  687.2000m 
  687.30000m  110.3274m  120.4428m  687.3000m 
  687.40000m  110.3429m  120.4241m  687.4000m 
  687.50000m  110.3585m  120.4054m  687.5000m 
  687.60000m  110.3741m  120.3868m  687.6000m 
  687.70000m  110.3896m  120.3682m  687.7000m 
  687.80000m  110.4051m  120.3495m  687.8000m 
  687.90000m  110.4206m  120.3309m  687.9000m 
  688.00000m  110.4362m  120.3123m  688.0000m 
  688.10000m  110.4517m  120.2938m  688.1000m 
  688.20000m  110.4671m  120.2752m  688.2000m 
  688.30000m  110.4826m  120.2567m  688.3000m 
  688.40000m  110.4981m  120.2381m  688.4000m 
  688.50000m  110.5135m  120.2196m  688.5000m 
  688.60000m  110.5290m  120.2011m  688.6000m 
  688.70000m  110.5444m  120.1826m  688.7000m 
  688.80000m  110.5598m  120.1642m  688.8000m 
  688.90000m  110.5753m  120.1457m  688.9000m 
  689.00000m  110.5907m  120.1273m  689.0000m 
  689.10000m  110.6060m  120.1088m  689.1000m 
  689.20000m  110.6214m  120.0904m  689.2000m 
  689.30000m  110.6368m  120.0720m  689.3000m 
  689.40000m  110.6522m  120.0536m  689.4000m 
  689.50000m  110.6675m  120.0353m  689.5000m 
  689.60000m  110.6828m  120.0169m  689.6000m 
  689.70000m  110.6982m  119.9986m  689.7000m 
  689.80000m  110.7135m  119.9802m  689.8000m 
  689.90000m  110.7288m  119.9619m  689.9000m 
  690.00000m  110.7441m  119.9436m  690.0000m 
  690.10000m  110.7594m  119.9254m  690.1000m 
  690.20000m  110.7746m  119.9071m  690.2000m 
  690.30000m  110.7899m  119.8888m  690.3000m 
  690.40000m  110.8052m  119.8706m  690.4000m 
  690.50000m  110.8204m  119.8524m  690.5000m 
  690.60000m  110.8356m  119.8342m  690.6000m 
  690.70000m  110.8509m  119.8160m  690.7000m 
  690.80000m  110.8661m  119.7978m  690.8000m 
  690.90000m  110.8813m  119.7796m  690.9000m 
  691.00000m  110.8965m  119.7615m  691.0000m 
  691.10000m  110.9116m  119.7433m  691.1000m 
  691.20000m  110.9268m  119.7252m  691.2000m 
  691.30000m  110.9420m  119.7071m  691.3000m 
  691.40000m  110.9571m  119.6890m  691.4000m 
  691.50000m  110.9723m  119.6709m  691.5000m 
  691.60000m  110.9874m  119.6528m  691.6000m 
  691.70000m  111.0025m  119.6348m  691.7000m 
  691.80000m  111.0176m  119.6168m  691.8000m 
  691.90000m  111.0327m  119.5987m  691.9000m 
  692.00000m  111.0478m  119.5807m  692.0000m 
  692.10000m  111.0629m  119.5627m  692.1000m 
  692.20000m  111.0779m  119.5447m  692.2000m 
  692.30000m  111.0930m  119.5268m  692.3000m 
  692.40000m  111.1080m  119.5088m  692.4000m 
  692.50000m  111.1231m  119.4909m  692.5000m 
  692.60000m  111.1381m  119.4730m  692.6000m 
  692.70000m  111.1531m  119.4550m  692.7000m 
  692.80000m  111.1681m  119.4371m  692.8000m 
  692.90000m  111.1831m  119.4193m  692.9000m 
  693.00000m  111.1981m  119.4014m  693.0000m 
  693.10000m  111.2130m  119.3835m  693.1000m 
  693.20000m  111.2280m  119.3657m  693.2000m 
  693.30000m  111.2430m  119.3479m  693.3000m 
  693.40000m  111.2579m  119.3301m  693.4000m 
  693.50000m  111.2728m  119.3123m  693.5000m 
  693.60000m  111.2877m  119.2945m  693.6000m 
  693.70000m  111.3027m  119.2767m  693.7000m 
  693.80000m  111.3176m  119.2589m  693.8000m 
  693.90000m  111.3324m  119.2412m  693.9000m 
  694.00000m  111.3473m  119.2235m  694.0000m 
  694.10000m  111.3622m  119.2057m  694.1000m 
  694.20000m  111.3770m  119.1880m  694.2000m 
  694.30000m  111.3919m  119.1704m  694.3000m 
  694.40000m  111.4067m  119.1527m  694.4000m 
  694.50000m  111.4216m  119.1350m  694.5000m 
  694.60000m  111.4364m  119.1174m  694.6000m 
  694.70000m  111.4512m  119.0997m  694.7000m 
  694.80000m  111.4660m  119.0821m  694.8000m 
  694.90000m  111.4808m  119.0645m  694.9000m 
  695.00000m  111.4956m  119.0469m  695.0000m 
  695.10000m  111.5103m  119.0293m  695.1000m 
  695.20000m  111.5251m  119.0118m  695.2000m 
  695.30000m  111.5398m  118.9942m  695.3000m 
  695.40000m  111.5546m  118.9767m  695.4000m 
  695.50000m  111.5693m  118.9592m  695.5000m 
  695.60000m  111.5840m  118.9417m  695.6000m 
  695.70000m  111.5987m  118.9242m  695.7000m 
  695.80000m  111.6134m  118.9067m  695.8000m 
  695.90000m  111.6281m  118.8892m  695.9000m 
  696.00000m  111.6428m  118.8717m  696.0000m 
  696.10000m  111.6574m  118.8543m  696.1000m 
  696.20000m  111.6721m  118.8369m  696.2000m 
  696.30000m  111.6867m  118.8195m  696.3000m 
  696.40000m  111.7014m  118.8021m  696.4000m 
  696.50000m  111.7160m  118.7847m  696.5000m 
  696.60000m  111.7306m  118.7673m  696.6000m 
  696.70000m  111.7452m  118.7499m  696.7000m 
  696.80000m  111.7598m  118.7326m  696.8000m 
  696.90000m  111.7744m  118.7153m  696.9000m 
  697.00000m  111.7890m  118.6979m  697.0000m 
  697.10000m  111.8036m  118.6806m  697.1000m 
  697.20000m  111.8181m  118.6633m  697.2000m 
  697.30000m  111.8327m  118.6461m  697.3000m 
  697.40000m  111.8472m  118.6288m  697.4000m 
  697.50000m  111.8617m  118.6115m  697.5000m 
  697.60000m  111.8762m  118.5943m  697.6000m 
  697.70000m  111.8907m  118.5771m  697.7000m 
  697.80000m  111.9052m  118.5598m  697.8000m 
  697.90000m  111.9197m  118.5426m  697.9000m 
  698.00000m  111.9342m  118.5255m  698.0000m 
  698.10000m  111.9487m  118.5083m  698.1000m 
  698.20000m  111.9631m  118.4911m  698.2000m 
  698.30000m  111.9776m  118.4740m  698.3000m 
  698.40000m  111.9920m  118.4568m  698.4000m 
  698.50000m  112.0064m  118.4397m  698.5000m 
  698.60000m  112.0209m  118.4226m  698.6000m 
  698.70000m  112.0353m  118.4055m  698.7000m 
  698.80000m  112.0497m  118.3884m  698.8000m 
  698.90000m  112.0641m  118.3714m  698.9000m 
  699.00000m  112.0784m  118.3543m  699.0000m 
  699.10000m  112.0928m  118.3373m  699.1000m 
  699.20000m  112.1072m  118.3202m  699.2000m 
  699.30000m  112.1215m  118.3032m  699.3000m 
  699.40000m  112.1359m  118.2862m  699.4000m 
  699.50000m  112.1502m  118.2692m  699.5000m 
  699.60000m  112.1645m  118.2523m  699.6000m 
  699.70000m  112.1788m  118.2353m  699.7000m 
  699.80000m  112.1931m  118.2183m  699.8000m 
  699.90000m  112.2074m  118.2014m  699.9000m 
  700.00000m  112.2217m  118.1845m  700.0000m 
y
 max_1=   failed
 max_2=   failed
 snm=   failed
1****** HSPICE -- Q-2020.03-SP2-2 linux64 (Nov  1 2020) ******                  
 ******  
 .title write noise margin

 ****** operating point information tnom=  25.000 temp=  25.000 ******
 ****** operating point status is all       simulation time is     0.     
    node    =voltage      node    =voltage      node    =voltage

 +0:bl      =   0.      0:blb     = 700.0000m 0:gl      =   0.     
 +0:q       =  14.5522n 0:qb      = 700.0000m 0:vdd     = 700.0000m
 +0:wl      = 700.0000m 0:x       = 645.4915m


 **** voltage sources

 subckt                                                         
 element  0:vbl      0:vblb     0:vgl      0:vvdd     0:vwl     
  volts      0.       700.0000m    0.       700.0000m  700.0000m
  current    2.5044p -176.2391a  259.9372f   -5.3544p -593.2489f
  power      0.       123.3674a    0.         3.7481p  415.2742f

     total voltage source power dissipation=    4.1635p       watts




 **** mosfets


 subckt                                                                    
 element  0:mpr      0:mnr      0:mpl      0:mnl      0:mnpr     0:mnpl    
 model    0:pmos_sra 0:nmos_sra 0:pmos_sra 0:nmos_sra 0:nmos_sra 0:nmos_sra
 region   Subth      Linear     Linear     Cutoff     Linear     Cutoff    
  id        -3.8124p    2.2071p   -1.4747p  678.4961f   -2.2071p  1.894e-19
  ibs        0.         0.         0.         0.         0.         0.     
  ibd        0.         0.         0.         0.         0.         0.     
  vgs      -13.1870n  700.0000m -700.0000m    0.       700.0000m   13.1870n
  vds     -700.0000m   14.5522n  -13.1870n  700.0000m  -14.5522n   13.1870n
  vbs      -54.5085m  645.4915m  -54.5085m  645.4915m  645.4915m  -54.5085m
  vth     -328.3087m  410.1164m -339.1310m  406.6380m  410.1164m  410.1164m
  vdsat    -72.7965m  280.7545m -365.6435m   70.6690m  280.7545m   70.6690m
  vod      328.3087m  289.8836m -360.8690m -406.6380m  289.8836m -410.1164m
  beta       1.6413m    2.1736m    1.6413m    2.1736m    2.1736m    2.1736m
  gam eff    0.         0.         0.         0.         0.         0.     
  gm       147.4374p    3.4235p    2.7633p   25.5583p    3.4235p    7.5286a
  gds        3.6592p  151.6697u  111.8329u  516.9755f  151.6697u   14.9555p
  gmb       44.2436a   10.4305a    2.8392a   17.2592a   10.4305a  2.079e-24
  cdtot     10.2225a   24.7315a   25.3299a   10.2225a   24.7315a   10.2225a
  cgtot     20.4452a   63.9719a   65.7671a   20.4450a   63.9719a   20.4450a
  cstot     10.2226a   24.7315a   25.3299a   10.2225a   24.7315a   10.2225a
  cbtot      0.         0.         0.         0.         0.         0.     
  cgs       10.2227a   31.9859a   32.8836a   10.2225a   31.9859a   10.2225a
  cgd       10.2225a   31.9859a   32.8836a   10.2225a   31.9859a   10.2225a




          ***** job concluded
 ******  
 .title write noise margin

 ****** job statistics summary tnom=  25.000 temp=  25.000 ******
  
 ******  Machine Information  ******
 CPU:
 model name	: AMD EPYC 7713 64-Core Processor
 cpu MHz	: 2000.000
  
 OS:
 Linux version 3.10.0-1160.88.1.el7.x86_64 (mockbuild@kbuilder.bsys.centos.org) (gcc version 4.8.5 20150623 (Red Hat 4.8.5-44) (GCC) ) #1 SMP Tue Mar 7 15:41:52 UTC 2023


  ******  HSPICE Threads Information  ******

  Command Line Threads Count :     1
  Available CPU Count        :   256
  Actual Threads Count       :     1


  ******  Circuit Statistics  ******
  # nodes       =       9 # elements   =      13
  # resistors   =       0 # capacitors =       2 # inductors   =       0
  # mutual_inds =       0 # vccs       =       0 # vcvs        =       0
  # cccs        =       0 # ccvs       =       0 # volt_srcs   =       5
  # curr_srcs   =       0 # diodes     =       0 # bjts        =       0
  # jfets       =       0 # mosfets    =       6 # U elements  =       0
  # T elements  =       0 # W elements =       0 # B elements  =       0
  # S elements  =       0 # P elements =       0 # va device   =       0
  # vector_srcs =       0 # N elements =       0


  ******  Runtime Statistics (seconds)  ******

  analysis           time    # points   tot. iter  conv.iter
  op point           0.02           1          21
  dc sweep           0.77        7001       21021
  readin             0.01
  errchk             0.01
  setup              0.00
  output             0.00


           peak memory used        401.11 megabytes
           total cpu time            0.85 seconds
           total elapsed time        1.02 seconds
           job started at     17:33:32 03/23/2025
           job ended   at     17:33:33 03/23/2025
           job total runtime         1.02 seconds


 lic: Release hspice token(s) 
 lic: total license checkout elapse time:        0.16(s)
