 ****** HSPICE -- Q-2020.03-SP2-2 linux64 (Nov  1 2020) ******                  
  Copyright (c) 1986 - 2025 by Synopsys, Inc. All Rights Reserved.              
  This software and the associated documentation are proprietary
  to Synopsys, Inc. This software may only be used in accordance
  with the terms and conditions of a written license agreement with
  Synopsys, Inc. All other use, reproduction, or distribution of
  this software is strictly prohibited.
  Input File: SRAM_SNM_TT_DifSupply.sp                                          
  Command line options: /RAID2/cad/synopsys/hspice/2020.03-sp2-2/hspice/linux64/hspice -i SRAM_SNM_TT_DifSupply.sp -o SRAM_RSNM_TT_DifSupply.lis
  Start time: Thu Mar 20 21:28:02 2025
 lic:  
 lic: FLEXlm: SDK_12.6 
 lic: USER:   es25MCS042           HOSTNAME: ee28 
 lic: HOSTID: "d85ed3efc19a"       PID:      199372 
 lic: Using FLEXlm license file: 
 lic: 26585@lshc 
 lic: Checkout 1 hspice 
 lic: License/Maintenance for hspice will expire on 14-may-2025/2024.09 
 lic: 316(in_use)/1100(total) FLOATING license(s) on SERVER 26585@lshc 
 lic:   
  
      
             
 Warning:'Floating bulk' occurs 1 times
 Summary of floating bulk:
 -----------------------
 |Node      |Device    |
 |----------+----------|
 |x         |mpr       |
 -----------------------
              
 *****************************************************************
 ******  option summary
 ******
 runlvl  = 3         bypass  = 2.0000    
 ******
 .title noise margin in hold operation

 ****** dc transfer curves tnom=  25.000 temp=  25.000 ******
x

 volt         voltage    voltage    voltage    voltage   
             q          qb         gl         gr         
 -494.97475m   31.6225n  700.0000m   -8.9308n  700.0000m 
 -494.87475m   31.7657n  700.0000m  141.4124u  699.8586m 
 -494.77475m   31.9096n  700.0000m  282.8337u  699.7172m 
 -494.67475m   32.0544n  700.0000m  424.2550u  699.5758m 
 -494.57475m   32.2000n  700.0000m  565.6764u  699.4343m 
 -494.47475m   32.3465n  700.0000m  707.0977u  699.2929m 
 -494.37475m   32.4938n  700.0000m  848.5190u  699.1515m 
 -494.27475m   32.6420n  700.0000m  989.9403u  699.0101m 
 -494.17475m   32.7910n  700.0000m    1.1314m  698.8687m 
 -494.07475m   32.9409n  700.0000m    1.2728m  698.7272m 
 -493.97475m   33.0916n  700.0000m    1.4142m  698.5858m 
 -493.87475m   33.2432n  700.0000m    1.5556m  698.4444m 
 -493.77475m   33.3957n  700.0000m    1.6970m  698.3030m 
 -493.67475m   33.5490n  700.0000m    1.8385m  698.1616m 
 -493.57475m   33.7033n  700.0000m    1.9799m  698.0201m 
 -493.47475m   33.8584n  700.0000m    2.1213m  697.8787m 
 -493.37475m   34.0144n  700.0000m    2.2627m  697.7373m 
 -493.27475m   34.1713n  700.0000m    2.4042m  697.5959m 
 -493.17475m   34.3291n  700.0000m    2.5456m  697.4544m 
 -493.07475m   34.4879n  700.0000m    2.6870m  697.3130m 
 -492.97475m   34.6475n  700.0000m    2.8284m  697.1716m 
 -492.87475m   34.8081n  700.0000m    2.9698m  697.0302m 
 -492.77475m   34.9695n  700.0000m    3.1113m  696.8888m 
 -492.67475m   35.1320n  700.0000m    3.2527m  696.7473m 
 -492.57475m   35.2953n  700.0000m    3.3941m  696.6059m 
 -492.47475m   35.4596n  700.0000m    3.5355m  696.4645m 
 -492.37475m   35.6249n  700.0000m    3.6769m  696.3231m 
 -492.27475m   35.7910n  700.0000m    3.8184m  696.1817m 
 -492.17475m   35.9582n  700.0000m    3.9598m  696.0402m 
 -492.07475m   36.1263n  700.0000m    4.1012m  695.8988m 
 -491.97475m   36.2954n  700.0000m    4.2426m  695.7574m 
 -491.87475m   36.4654n  700.0000m    4.3841m  695.6160m 
 -491.77475m   36.6365n  700.0000m    4.5255m  695.4746m 
 -491.67475m   36.8085n  700.0000m    4.6669m  695.3331m 
 -491.57475m   36.9815n  700.0000m    4.8083m  695.1917m 
 -491.47475m   37.1555n  700.0000m    4.9497m  695.0503m 
 -491.37475m   37.3305n  700.0000m    5.0912m  694.9089m 
 -491.27475m   37.5065n  700.0000m    5.2326m  694.7674m 
 -491.17475m   37.6836n  700.0000m    5.3740m  694.6260m 
 -491.07475m   37.8616n  700.0000m    5.5154m  694.4846m 
 -490.97475m   38.0407n  700.0000m    5.6568m  694.3432m 
 -490.87475m   38.2208n  700.0000m    5.7983m  694.2018m 
 -490.77475m   38.4019n  700.0000m    5.9397m  694.0603m 
 -490.67475m   38.5841n  700.0000m    6.0811m  693.9189m 
 -490.57475m   38.7674n  700.0000m    6.2225m  693.7775m 
 -490.47475m   38.9517n  700.0000m    6.3640m  693.6361m 
 -490.37475m   39.1370n  700.0000m    6.5054m  693.4947m 
 -490.27475m   39.3234n  700.0000m    6.6468m  693.3532m 
 -490.17475m   39.5109n  700.0000m    6.7882m  693.2118m 
 -490.07475m   39.6995n  700.0000m    6.9296m  693.0704m 
 -489.97475m   39.8892n  700.0000m    7.0711m  692.9290m 
 -489.87475m   40.0799n  700.0000m    7.2125m  692.7876m 
 -489.77475m   40.2718n  700.0000m    7.3539m  692.6461m 
 -489.67475m   40.4647n  700.0000m    7.4953m  692.5047m 
 -489.57475m   40.6588n  700.0000m    7.6367m  692.3633m 
 -489.47475m   40.8540n  700.0000m    7.7782m  692.2219m 
 -489.37475m   41.0503n  700.0000m    7.9196m  692.0804m 
 -489.27475m   41.2478n  700.0000m    8.0610m  691.9390m 
 -489.17475m   41.4463n  700.0000m    8.2024m  691.7976m 
 -489.07475m   41.6461n  700.0000m    8.3438m  691.6562m 
 -488.97475m   41.8469n  700.0000m    8.4853m  691.5148m 
 -488.87475m   42.0490n  700.0000m    8.6267m  691.3733m 
 -488.77475m   42.2522n  700.0000m    8.7681m  691.2319m 
 -488.67475m   42.4565n  700.0000m    8.9095m  691.0905m 
 -488.57475m   42.6621n  700.0000m    9.0510m  690.9491m 
 -488.47475m   42.8688n  700.0000m    9.1924m  690.8077m 
 -488.37475m   43.0767n  700.0000m    9.3338m  690.6662m 
 -488.27475m   43.2859n  700.0000m    9.4752m  690.5248m 
 -488.17475m   43.4962n  700.0000m    9.6166m  690.3834m 
 -488.07475m   43.7077n  700.0000m    9.7581m  690.2420m 
 -487.97475m   43.9205n  700.0000m    9.8995m  690.1005m 
 -487.87475m   44.1345n  700.0000m   10.0409m  689.9591m 
 -487.77475m   44.3497n  700.0000m   10.1823m  689.8177m 
 -487.67475m   44.5661n  700.0000m   10.3237m  689.6763m 
 -487.57475m   44.7838n  700.0000m   10.4652m  689.5349m 
 -487.47475m   45.0028n  700.0000m   10.6066m  689.3934m 
 -487.37475m   45.2230n  700.0000m   10.7480m  689.2520m 
 -487.27475m   45.4445n  700.0000m   10.8894m  689.1106m 
 -487.17475m   45.6673n  700.0000m   11.0309m  688.9692m 
 -487.07475m   45.8913n  700.0000m   11.1723m  688.8278m 
 -486.97475m   46.1167n  700.0000m   11.3137m  688.6863m 
 -486.87475m   46.3433n  700.0000m   11.4551m  688.5449m 
 -486.77475m   46.5713n  700.0000m   11.5965m  688.4035m 
 -486.67475m   46.8005n  700.0000m   11.7380m  688.2621m 
 -486.57475m   47.0311n  700.0000m   11.8794m  688.1207m 
 -486.47475m   47.2630n  700.0000m   12.0208m  687.9792m 
 -486.37475m   47.4963n  700.0000m   12.1622m  687.8378m 
 -486.27475m   47.7308n  700.0000m   12.3036m  687.6964m 
 -486.17475m   47.9668n  700.0000m   12.4451m  687.5550m 
 -486.07475m   48.2041n  700.0000m   12.5865m  687.4135m 
 -485.97475m   48.4428n  700.0000m   12.7279m  687.2721m 
 -485.87475m   48.6828n  700.0000m   12.8693m  687.1307m 
 -485.77475m   48.9242n  700.0000m   13.0108m  686.9893m 
 -485.67475m   49.1671n  700.0000m   13.1522m  686.8479m 
 -485.57475m   49.4113n  700.0000m   13.2936m  686.7064m 
 -485.47475m   49.6569n  700.0000m   13.4350m  686.5650m 
 -485.37475m   49.9040n  700.0000m   13.5764m  686.4236m 
 -485.27475m   50.1524n  700.0000m   13.7179m  686.2822m 
 -485.17475m   50.4024n  700.0000m   13.8593m  686.1408m 
 -485.07475m   50.6537n  700.0000m   14.0007m  685.9993m 
 -484.97475m   50.9065n  700.0000m   14.1421m  685.8579m 
 -484.87475m   51.1607n  700.0000m   14.2835m  685.7165m 
 -484.77475m   51.4165n  700.0000m   14.4250m  685.5751m 
 -484.67475m   51.6737n  700.0000m   14.5664m  685.4337m 
 -484.57475m   51.9323n  700.0000m   14.7078m  685.2922m 
 -484.47475m   52.1925n  700.0000m   14.8492m  685.1508m 
 -484.37475m   52.4542n  700.0000m   14.9906m  685.0094m 
 -484.27475m   52.7173n  700.0000m   15.1321m  684.8680m 
 -484.17475m   52.9820n  700.0000m   15.2735m  684.7265m 
 -484.07475m   53.2483n  700.0000m   15.4149m  684.5851m 
 -483.97475m   53.5160n  700.0000m   15.5563m  684.4437m 
 -483.87475m   53.7853n  700.0000m   15.6978m  684.3023m 
 -483.77475m   54.0562n  700.0000m   15.8392m  684.1609m 
 -483.67475m   54.3286n  700.0000m   15.9806m  684.0194m 
 -483.57475m   54.6026n  700.0000m   16.1220m  683.8780m 
 -483.47475m   54.8781n  700.0000m   16.2634m  683.7366m 
 -483.37475m   55.1553n  700.0000m   16.4049m  683.5952m 
 -483.27475m   55.4340n  700.0000m   16.5463m  683.4538m 
 -483.17475m   55.7144n  700.0000m   16.6877m  683.3123m 
 -483.07475m   55.9964n  700.0000m   16.8291m  683.1709m 
 -482.97475m   56.2800n  700.0000m   16.9705m  683.0295m 
 -482.87475m   56.5652n  700.0000m   17.1120m  682.8881m 
 -482.77475m   56.8521n  700.0000m   17.2534m  682.7467m 
 -482.67475m   57.1407n  700.0000m   17.3948m  682.6052m 
 -482.57475m   57.4309n  700.0000m   17.5362m  682.4638m 
 -482.47475m   57.7228n  700.0000m   17.6777m  682.3224m 
 -482.37475m   58.0163n  700.0000m   17.8191m  682.1810m 
 -482.27475m   58.3116n  700.0000m   17.9605m  682.0395m 
 -482.17475m   58.6086n  700.0000m   18.1019m  681.8981m 
 -482.07475m   58.9072n  700.0000m   18.2433m  681.7567m 
 -481.97475m   59.2076n  700.0000m   18.3848m  681.6153m 
 -481.87475m   59.5098n  700.0000m   18.5262m  681.4739m 
 -481.77475m   59.8136n  700.0000m   18.6676m  681.3324m 
 -481.67475m   60.1193n  700.0000m   18.8090m  681.1910m 
 -481.57475m   60.4267n  700.0000m   18.9504m  681.0496m 
 -481.47475m   60.7358n  700.0000m   19.0919m  680.9082m 
 -481.37475m   61.0468n  700.0000m   19.2333m  680.7668m 
 -481.27475m   61.3595n  700.0000m   19.3747m  680.6253m 
 -481.17475m   61.6741n  700.0000m   19.5161m  680.4839m 
 -481.07475m   61.9905n  700.0000m   19.6576m  680.3425m 
 -480.97475m   62.3086n  700.0000m   19.7990m  680.2011m 
 -480.87475m   62.6287n  700.0000m   19.9404m  680.0597m 
 -480.77475m   62.9506n  700.0000m   20.0818m  679.9182m 
 -480.67475m   63.2743n  700.0000m   20.2232m  679.7768m 
 -480.57475m   63.5999n  700.0000m   20.3647m  679.6354m 
 -480.47475m   63.9274n  700.0000m   20.5061m  679.4940m 
 -480.37475m   64.2568n  700.0000m   20.6475m  679.3525m 
 -480.27475m   64.5880n  700.0000m   20.7889m  679.2111m 
 -480.17475m   64.9212n  700.0000m   20.9303m  679.0697m 
 -480.07475m   65.2563n  700.0000m   21.0718m  678.9283m 
 -479.97475m   65.5934n  700.0000m   21.2132m  678.7869m 
 -479.87475m   65.9324n  700.0000m   21.3546m  678.6454m 
 -479.77475m   66.2733n  700.0000m   21.4960m  678.5040m 
 -479.67475m   66.6162n  700.0000m   21.6375m  678.3626m 
 -479.57475m   66.9611n  700.0000m   21.7789m  678.2212m 
 -479.47475m   67.3080n  700.0000m   21.9203m  678.0798m 
 -479.37475m   67.6569n  700.0000m   22.0617m  677.9383m 
 -479.27475m   68.0078n  700.0000m   22.2031m  677.7969m 
 -479.17475m   68.3607n  700.0000m   22.3446m  677.6555m 
 -479.07475m   68.7157n  700.0000m   22.4860m  677.5141m 
 -478.97475m   69.0727n  700.0000m   22.6274m  677.3727m 
 -478.87475m   69.4318n  700.0000m   22.7688m  677.2312m 
 -478.77475m   69.7930n  700.0000m   22.9102m  677.0898m 
 -478.67475m   70.1562n  700.0000m   23.0517m  676.9484m 
 -478.57475m   70.5216n  700.0000m   23.1931m  676.8070m 
 -478.47475m   70.8890n  700.0000m   23.3345m  676.6655m 
 -478.37475m   71.2586n  700.0000m   23.4759m  676.5241m 
 -478.27475m   71.6303n  700.0000m   23.6173m  676.3827m 
 -478.17475m   72.0041n  700.0000m   23.7588m  676.2413m 
 -478.07475m   72.3802n  700.0000m   23.9002m  676.0999m 
 -477.97475m   72.7584n  700.0000m   24.0416m  675.9584m 
 -477.87475m   73.1387n  700.0000m   24.1830m  675.8170m 
 -477.77475m   73.5213n  700.0000m   24.3245m  675.6756m 
 -477.67475m   73.9061n  700.0000m   24.4659m  675.5342m 
 -477.57475m   74.2931n  700.0000m   24.6073m  675.3928m 
 -477.47475m   74.6823n  700.0000m   24.7487m  675.2513m 
 -477.37475m   75.0738n  700.0000m   24.8901m  675.1099m 
 -477.27475m   75.4676n  700.0000m   25.0316m  674.9685m 
 -477.17475m   75.8636n  700.0000m   25.1730m  674.8271m 
 -477.07475m   76.2619n  700.0000m   25.3144m  674.6857m 
 -476.97475m   76.6625n  700.0000m   25.4558m  674.5442m 
 -476.87475m   77.0654n  700.0000m   25.5972m  674.4028m 
 -476.77475m   77.4707n  700.0000m   25.7387m  674.2614m 
 -476.67475m   77.8783n  700.0000m   25.8801m  674.1200m 
 -476.57475m   78.2883n  700.0000m   26.0215m  673.9785m 
 -476.47475m   78.7006n  700.0000m   26.1629m  673.8371m 
 -476.37475m   79.1153n  700.0000m   26.3044m  673.6957m 
 -476.27475m   79.5324n  700.0000m   26.4458m  673.5543m 
 -476.17475m   79.9519n  700.0000m   26.5872m  673.4129m 
 -476.07475m   80.3739n  700.0000m   26.7286m  673.2714m 
 -475.97475m   80.7982n  700.0000m   26.8700m  673.1300m 
 -475.87475m   81.2251n  700.0000m   27.0115m  672.9886m 
 -475.77475m   81.6544n  700.0000m   27.1529m  672.8472m 
 -475.67475m   82.0862n  700.0000m   27.2943m  672.7058m 
 -475.57475m   82.5204n  700.0000m   27.4357m  672.5643m 
 -475.47475m   82.9572n  700.0000m   27.5771m  672.4229m 
 -475.37475m   83.3966n  700.0000m   27.7186m  672.2815m 
 -475.27475m   83.8384n  700.0000m   27.8600m  672.1401m 
 -475.17475m   84.2828n  700.0000m   28.0014m  671.9987m 
 -475.07475m   84.7298n  700.0000m   28.1428m  671.8572m 
 -474.97475m   85.1794n  700.0000m   28.2842m  671.7158m 
 -474.87475m   85.6315n  700.0000m   28.4257m  671.5744m 
 -474.77475m   86.0863n  700.0000m   28.5671m  671.4330m 
 -474.67475m   86.5437n  700.0000m   28.7085m  671.2916m 
 -474.57475m   87.0038n  700.0000m   28.8499m  671.1501m 
 -474.47475m   87.4665n  700.0000m   28.9914m  671.0087m 
 -474.37475m   87.9319n  700.0000m   29.1328m  670.8673m 
 -474.27475m   88.4000n  700.0000m   29.2742m  670.7259m 
 -474.17475m   88.8708n  700.0000m   29.4156m  670.5844m 
 -474.07475m   89.3443n  700.0000m   29.5570m  670.4430m 
 -473.97475m   89.8206n  700.0000m   29.6985m  670.3016m 
 -473.87475m   90.2996n  700.0000m   29.8399m  670.1602m 
 -473.77475m   90.7814n  700.0000m   29.9813m  670.0188m 
 -473.67475m   91.2659n  700.0000m   30.1227m  669.8773m 
 -473.57475m   91.7533n  700.0000m   30.2641m  669.7359m 
 -473.47475m   92.2435n  700.0000m   30.4056m  669.5945m 
 -473.37475m   92.7365n  700.0000m   30.5470m  669.4531m 
 -473.27475m   93.2324n  700.0000m   30.6884m  669.3117m 
 -473.17475m   93.7312n  700.0000m   30.8298m  669.1702m 
 -473.07475m   94.2328n  700.0000m   30.9713m  669.0288m 
 -472.97475m   94.7374n  700.0000m   31.1127m  668.8874m 
 -472.87475m   95.2448n  700.0000m   31.2541m  668.7460m 
 -472.77475m   95.7552n  700.0000m   31.3955m  668.6046m 
 -472.67475m   96.2686n  700.0000m   31.5369m  668.4631m 
 -472.57475m   96.7849n  700.0000m   31.6784m  668.3217m 
 -472.47475m   97.3042n  700.0000m   31.8198m  668.1803m 
 -472.37475m   97.8265n  700.0000m   31.9612m  668.0389m 
 -472.27475m   98.3519n  700.0000m   32.1026m  667.8975m 
 -472.17475m   98.8803n  700.0000m   32.2440m  667.7560m 
 -472.07475m   99.4117n  700.0000m   32.3855m  667.6146m 
 -471.97475m   99.9462n  700.0000m   32.5269m  667.4732m 
 -471.87475m  100.4839n  700.0000m   32.6683m  667.3318m 
 -471.77475m  101.0246n  700.0000m   32.8097m  667.1903m 
 -471.67475m  101.5684n  700.0000m   32.9512m  667.0489m 
 -471.57475m  102.1155n  700.0000m   33.0926m  666.9075m 
 -471.47475m  102.6656n  700.0000m   33.2340m  666.7661m 
 -471.37475m  103.2190n  700.0000m   33.3754m  666.6247m 
 -471.27475m  103.7756n  700.0000m   33.5168m  666.4832m 
 -471.17475m  104.3353n  700.0000m   33.6583m  666.3418m 
 -471.07475m  104.8984n  700.0000m   33.7997m  666.2004m 
 -470.97475m  105.4647n  700.0000m   33.9411m  666.0590m 
 -470.87475m  106.0342n  700.0000m   34.0825m  665.9176m 
 -470.77475m  106.6071n  700.0000m   34.2239m  665.7761m 
 -470.67475m  107.1833n  700.0000m   34.3654m  665.6347m 
 -470.57475m  107.7628n  700.0000m   34.5068m  665.4933m 
 -470.47475m  108.3457n  700.0000m   34.6482m  665.3519m 
 -470.37475m  108.9320n  700.0000m   34.7896m  665.2105m 
 -470.27475m  109.5216n  700.0000m   34.9310m  665.0690m 
 -470.17475m  110.1147n  700.0000m   35.0725m  664.9276m 
 -470.07475m  110.7112n  700.0000m   35.2139m  664.7862m 
 -469.97475m  111.3112n  700.0000m   35.3553m  664.6448m 
 -469.87475m  111.9146n  700.0000m   35.4967m  664.5034m 
 -469.77475m  112.5216n  700.0000m   35.6382m  664.3619m 
 -469.67475m  113.1320n  700.0000m   35.7796m  664.2205m 
 -469.57475m  113.7460n  700.0000m   35.9210m  664.0791m 
 -469.47475m  114.3636n  700.0000m   36.0624m  663.9377m 
 -469.37475m  114.9847n  700.0000m   36.2038m  663.7962m 
 -469.27475m  115.6094n  700.0000m   36.3453m  663.6548m 
 -469.17475m  116.2378n  700.0000m   36.4867m  663.5134m 
 -469.07475m  116.8698n  700.0000m   36.6281m  663.3720m 
 -468.97475m  117.5054n  700.0000m   36.7695m  663.2306m 
 -468.87475m  118.1448n  700.0000m   36.9109m  663.0891m 
 -468.77475m  118.7878n  700.0000m   37.0524m  662.9477m 
 -468.67475m  119.4346n  700.0000m   37.1938m  662.8063m 
 -468.57475m  120.0851n  700.0000m   37.3352m  662.6649m 
 -468.47475m  120.7394n  700.0000m   37.4766m  662.5235m 
 -468.37475m  121.3975n  700.0000m   37.6181m  662.3820m 
 -468.27475m  122.0594n  700.0000m   37.7595m  662.2406m 
 -468.17475m  122.7251n  700.0000m   37.9009m  662.0992m 
 -468.07475m  123.3947n  700.0000m   38.0423m  661.9578m 
 -467.97475m  124.0682n  700.0000m   38.1837m  661.8164m 
 -467.87475m  124.7456n  700.0000m   38.3252m  661.6749m 
 -467.77475m  125.4269n  700.0000m   38.4666m  661.5335m 
 -467.67475m  126.1122n  700.0000m   38.6080m  661.3921m 
 -467.57475m  126.8014n  700.0000m   38.7494m  661.2507m 
 -467.47475m  127.4947n  700.0000m   38.8908m  661.1093m 
 -467.37475m  128.1920n  700.0000m   39.0323m  660.9678m 
 -467.27475m  128.8933n  700.0000m   39.1737m  660.8264m 
 -467.17475m  129.5986n  700.0000m   39.3151m  660.6850m 
 -467.07475m  130.3081n  700.0000m   39.4565m  660.5436m 
 -466.97475m  131.0217n  700.0000m   39.5979m  660.4022m 
 -466.87475m  131.7394n  700.0000m   39.7394m  660.2607m 
 -466.77475m  132.4613n  700.0000m   39.8808m  660.1193m 
 -466.67475m  133.1874n  700.0000m   40.0222m  659.9779m 
 -466.57475m  133.9177n  700.0000m   40.1636m  659.8365m 
 -466.47475m  134.6522n  700.0000m   40.3051m  659.6950m 
 -466.37475m  135.3910n  700.0000m   40.4465m  659.5536m 
 -466.27475m  136.1341n  700.0000m   40.5879m  659.4122m 
 -466.17475m  136.8815n  700.0000m   40.7293m  659.2708m 
 -466.07475m  137.6332n  700.0000m   40.8707m  659.1294m 
 -465.97475m  138.3893n  700.0000m   41.0122m  658.9879m 
 -465.87475m  139.1498n  700.0000m   41.1536m  658.8465m 
 -465.77475m  139.9147n  700.0000m   41.2950m  658.7051m 
 -465.67475m  140.6840n  700.0000m   41.4364m  658.5637m 
 -465.57475m  141.4578n  700.0000m   41.5778m  658.4223m 
 -465.47475m  142.2361n  700.0000m   41.7193m  658.2808m 
 -465.37475m  143.0189n  700.0000m   41.8607m  658.1394m 
 -465.27475m  143.8063n  700.0000m   42.0021m  657.9980m 
 -465.17475m  144.5982n  700.0000m   42.1435m  657.8566m 
 -465.07475m  145.3947n  700.0000m   42.2849m  657.7152m 
 -464.97475m  146.1959n  700.0000m   42.4264m  657.5737m 
 -464.87475m  147.0017n  700.0000m   42.5678m  657.4323m 
 -464.77475m  147.8121n  700.0000m   42.7092m  657.2909m 
 -464.67475m  148.6273n  700.0000m   42.8506m  657.1495m 
 -464.57475m  149.4472n  700.0000m   42.9921m  657.0081m 
 -464.47475m  150.2719n  700.0000m   43.1335m  656.8666m 
 -464.37475m  151.1014n  700.0000m   43.2749m  656.7252m 
 -464.27475m  151.9357n  700.0000m   43.4163m  656.5838m 
 -464.17475m  152.7748n  700.0000m   43.5577m  656.4424m 
 -464.07475m  153.6188n  700.0000m   43.6992m  656.3010m 
 -463.97475m  154.4678n  700.0000m   43.8406m  656.1595m 
 -463.87475m  155.3216n  700.0000m   43.9820m  656.0181m 
 -463.77475m  156.1804n  700.0000m   44.1234m  655.8767m 
 -463.67475m  157.0442n  700.0000m   44.2648m  655.7353m 
 -463.57475m  157.9130n  700.0000m   44.4063m  655.5939m 
 -463.47475m  158.7869n  700.0000m   44.5477m  655.4524m 
 -463.37475m  159.6658n  700.0000m   44.6891m  655.3110m 
 -463.27475m  160.5499n  700.0000m   44.8305m  655.1696m 
 -463.17475m  161.4391n  700.0000m   44.9720m  655.0282m 
 -463.07475m  162.3334n  700.0000m   45.1134m  654.8867m 
 -462.97475m  163.2330n  700.0000m   45.2548m  654.7453m 
 -462.87475m  164.1378n  700.0000m   45.3962m  654.6039m 
 -462.77475m  165.0478n  700.0000m   45.5376m  654.4625m 
 -462.67475m  165.9631n  700.0000m   45.6791m  654.3211m 
 -462.57475m  166.8838n  700.0000m   45.8205m  654.1796m 
 -462.47475m  167.8098n  700.0000m   45.9619m  654.0382m 
 -462.37475m  168.7412n  700.0000m   46.1033m  653.8968m 
 -462.27475m  169.6780n  700.0000m   46.2447m  653.7554m 
 -462.17475m  170.6202n  700.0000m   46.3862m  653.6140m 
 -462.07475m  171.5679n  700.0000m   46.5276m  653.4725m 
 -461.97475m  172.5212n  700.0000m   46.6690m  653.3311m 
 -461.87475m  173.4800n  700.0000m   46.8104m  653.1897m 
 -461.77475m  174.4443n  700.0000m   46.9518m  653.0483m 
 -461.67475m  175.4143n  700.0000m   47.0933m  652.9069m 
 -461.57475m  176.3899n  700.0000m   47.2347m  652.7654m 
 -461.47475m  177.3712n  700.0000m   47.3761m  652.6240m 
 -461.37475m  178.3582n  700.0000m   47.5175m  652.4826m 
 -461.27475m  179.3509n  700.0000m   47.6590m  652.3412m 
 -461.17475m  180.3494n  700.0000m   47.8004m  652.1998m 
 -461.07475m  181.3537n  700.0000m   47.9418m  652.0583m 
 -460.97475m  182.3638n  700.0000m   48.0832m  651.9169m 
 -460.87475m  183.3799n  700.0000m   48.2246m  651.7755m 
 -460.77475m  184.4018n  700.0000m   48.3661m  651.6341m 
 -460.67475m  185.4297n  700.0000m   48.5075m  651.4927m 
 -460.57475m  186.4636n  700.0000m   48.6489m  651.3512m 
 -460.47475m  187.5034n  700.0000m   48.7903m  651.2098m 
 -460.37475m  188.5494n  700.0000m   48.9317m  651.0684m 
 -460.27475m  189.6014n  700.0000m   49.0732m  650.9270m 
 -460.17475m  190.6595n  700.0000m   49.2146m  650.7856m 
 -460.07475m  191.7238n  700.0000m   49.3560m  650.6441m 
 -459.97475m  192.7943n  700.0000m   49.4974m  650.5027m 
 -459.87475m  193.8711n  700.0000m   49.6388m  650.3613m 
 -459.77475m  194.9541n  700.0000m   49.7803m  650.2199m 
 -459.67475m  196.0434n  700.0000m   49.9217m  650.0785m 
 -459.57475m  197.1390n  700.0000m   50.0631m  649.9370m 
 -459.47475m  198.2410n  700.0000m   50.2045m  649.7956m 
 -459.37475m  199.3495n  700.0000m   50.3460m  649.6542m 
 -459.27475m  200.4643n  700.0000m   50.4874m  649.5128m 
 -459.17475m  201.5857n  700.0000m   50.6288m  649.3714m 
 -459.07475m  202.7136n  700.0000m   50.7702m  649.2299m 
 -458.97475m  203.8481n  700.0000m   50.9116m  649.0885m 
 -458.87475m  204.9892n  700.0000m   51.0531m  648.9471m 
 -458.77475m  206.1369n  700.0000m   51.1945m  648.8057m 
 -458.67475m  207.2913n  700.0000m   51.3359m  648.6643m 
 -458.57475m  208.4525n  699.9999m   51.4773m  648.5228m 
 -458.47475m  209.6204n  699.9999m   51.6187m  648.3814m 
 -458.37475m  210.7951n  699.9999m   51.7602m  648.2400m 
 -458.27475m  211.9766n  699.9999m   51.9016m  648.0986m 
 -458.17475m  213.1651n  699.9999m   52.0430m  647.9572m 
 -458.07475m  214.3604n  699.9999m   52.1844m  647.8157m 
 -457.97475m  215.5627n  699.9999m   52.3259m  647.6743m 
 -457.87475m  216.7720n  699.9999m   52.4673m  647.5329m 
 -457.77475m  217.9884n  699.9999m   52.6087m  647.3915m 
 -457.67475m  219.2119n  699.9999m   52.7501m  647.2501m 
 -457.57475m  220.4424n  699.9999m   52.8915m  647.1086m 
 -457.47475m  221.6802n  699.9999m   53.0330m  646.9672m 
 -457.37475m  222.9252n  699.9999m   53.1744m  646.8258m 
 -457.27475m  224.1774n  699.9999m   53.3158m  646.6844m 
 -457.17475m  225.4369n  699.9999m   53.4572m  646.5430m 
 -457.07475m  226.7038n  699.9999m   53.5986m  646.4015m 
 -456.97475m  227.9780n  699.9999m   53.7401m  646.2601m 
 -456.87475m  229.2597n  699.9999m   53.8815m  646.1187m 
 -456.77475m  230.5489n  699.9999m   54.0229m  645.9773m 
 -456.67475m  231.8455n  699.9999m   54.1643m  645.8359m 
 -456.57475m  233.1498n  699.9999m   54.3057m  645.6944m 
 -456.47475m  234.4616n  699.9999m   54.4472m  645.5530m 
 -456.37475m  235.7811n  699.9999m   54.5886m  645.4116m 
 -456.27475m  237.1082n  699.9999m   54.7300m  645.2702m 
 -456.17475m  238.4431n  699.9999m   54.8714m  645.1288m 
 -456.07475m  239.7858n  699.9999m   55.0129m  644.9873m 
 -455.97475m  241.1364n  699.9999m   55.1543m  644.8459m 
 -455.87475m  242.4948n  699.9999m   55.2957m  644.7045m 
 -455.77475m  243.8611n  699.9999m   55.4371m  644.5631m 
 -455.67475m  245.2354n  699.9999m   55.5785m  644.4217m 
 -455.57475m  246.6177n  699.9999m   55.7200m  644.2802m 
 -455.47475m  248.0081n  699.9999m   55.8614m  644.1388m 
 -455.37475m  249.4066n  699.9999m   56.0028m  643.9974m 
 -455.27475m  250.8132n  699.9999m   56.1442m  643.8560m 
 -455.17475m  252.2281n  699.9999m   56.2856m  643.7146m 
 -455.07475m  253.6512n  699.9999m   56.4271m  643.5731m 
 -454.97475m  255.0826n  699.9999m   56.5685m  643.4317m 
 -454.87475m  256.5224n  699.9999m   56.7099m  643.2903m 
 -454.77475m  257.9705n  699.9999m   56.8513m  643.1489m 
 -454.67475m  259.4271n  699.9999m   56.9927m  643.0075m 
 -454.57475m  260.8923n  699.9999m   57.1342m  642.8660m 
 -454.47475m  262.3659n  699.9999m   57.2756m  642.7246m 
 -454.37475m  263.8482n  699.9999m   57.4170m  642.5832m 
 -454.27475m  265.3391n  699.9999m   57.5584m  642.4418m 
 -454.17475m  266.8388n  699.9999m   57.6999m  642.3004m 
 -454.07475m  268.3472n  699.9999m   57.8413m  642.1589m 
 -453.97475m  269.8643n  699.9999m   57.9827m  642.0175m 
 -453.87475m  271.3904n  699.9999m   58.1241m  641.8761m 
 -453.77475m  272.9253n  699.9999m   58.2655m  641.7347m 
 -453.67475m  274.4693n  699.9999m   58.4070m  641.5933m 
 -453.57475m  276.0222n  699.9999m   58.5484m  641.4518m 
 -453.47475m  277.5842n  699.9999m   58.6898m  641.3104m 
 -453.37475m  279.1553n  699.9999m   58.8312m  641.1690m 
 -453.27475m  280.7356n  699.9999m   58.9726m  641.0276m 
 -453.17475m  282.3252n  699.9999m   59.1141m  640.8862m 
 -453.07475m  283.9240n  699.9999m   59.2555m  640.7447m 
 -452.97475m  285.5321n  699.9999m   59.3969m  640.6033m 
 -452.87475m  287.1497n  699.9999m   59.5383m  640.4619m 
 -452.77475m  288.7767n  699.9999m   59.6797m  640.3205m 
 -452.67475m  290.4132n  699.9999m   59.8212m  640.1791m 
 -452.57475m  292.0593n  699.9999m   59.9626m  640.0376m 
 -452.47475m  293.7150n  699.9999m   60.1040m  639.8962m 
 -452.37475m  295.3803n  699.9999m   60.2454m  639.7548m 
 -452.27475m  297.0554n  699.9999m   60.3868m  639.6134m 
 -452.17475m  298.7403n  699.9999m   60.5283m  639.4720m 
 -452.07475m  300.4350n  699.9999m   60.6697m  639.3305m 
 -451.97475m  302.1396n  699.9999m   60.8111m  639.1891m 
 -451.87475m  303.8542n  699.9999m   60.9525m  639.0477m 
 -451.77475m  305.5788n  699.9999m   61.0940m  638.9063m 
 -451.67475m  307.3135n  699.9999m   61.2354m  638.7649m 
 -451.57475m  309.0584n  699.9999m   61.3768m  638.6234m 
 -451.47475m  310.8134n  699.9999m   61.5182m  638.4820m 
 -451.37475m  312.5787n  699.9999m   61.6596m  638.3406m 
 -451.27475m  314.3543n  699.9999m   61.8011m  638.1992m 
 -451.17475m  316.1403n  699.9999m   61.9425m  638.0578m 
 -451.07475m  317.9368n  699.9999m   62.0839m  637.9163m 
 -450.97475m  319.7437n  699.9999m   62.2253m  637.7749m 
 -450.87475m  321.5612n  699.9999m   62.3667m  637.6335m 
 -450.77475m  323.3894n  699.9999m   62.5082m  637.4921m 
 -450.67475m  325.2282n  699.9999m   62.6496m  637.3507m 
 -450.57475m  327.0778n  699.9999m   62.7910m  637.2092m 
 -450.47475m  328.9382n  699.9999m   62.9324m  637.0678m 
 -450.37475m  330.8095n  699.9999m   63.0738m  636.9264m 
 -450.27475m  332.6918n  699.9999m   63.2153m  636.7850m 
 -450.17475m  334.5850n  699.9999m   63.3567m  636.6436m 
 -450.07475m  336.4893n  699.9999m   63.4981m  636.5021m 
 -449.97475m  338.4048n  699.9999m   63.6395m  636.3607m 
 -449.87475m  340.3315n  699.9999m   63.7810m  636.2193m 
 -449.77475m  342.2695n  699.9999m   63.9224m  636.0779m 
 -449.67475m  344.2187n  699.9999m   64.0638m  635.9365m 
 -449.57475m  346.1794n  699.9999m   64.2052m  635.7951m 
 -449.47475m  348.1516n  699.9999m   64.3466m  635.6536m 
 -449.37475m  350.1353n  699.9999m   64.4881m  635.5122m 
 -449.27475m  352.1307n  699.9999m   64.6295m  635.3708m 
 -449.17475m  354.1377n  699.9999m   64.7709m  635.2294m 
 -449.07475m  356.1564n  699.9999m   64.9123m  635.0880m 
 -448.97475m  358.1870n  699.9999m   65.0537m  634.9465m 
 -448.87475m  360.2295n  699.9999m   65.1952m  634.8051m 
 -448.77475m  362.2839n  699.9999m   65.3366m  634.6637m 
 -448.67475m  364.3504n  699.9999m   65.4780m  634.5223m 
 -448.57475m  366.4289n  699.9999m   65.6194m  634.3809m 
 -448.47475m  368.5196n  699.9999m   65.7608m  634.2394m 
 -448.37475m  370.6226n  699.9999m   65.9023m  634.0980m 
 -448.27475m  372.7379n  699.9999m   66.0437m  633.9566m 
 -448.17475m  374.8655n  699.9999m   66.1851m  633.8152m 
 -448.07475m  377.0057n  699.9999m   66.3265m  633.6738m 
 -447.97475m  379.1583n  699.9999m   66.4679m  633.5323m 
 -447.87475m  381.3236n  699.9999m   66.6094m  633.3909m 
 -447.77475m  383.5016n  699.9999m   66.7508m  633.2495m 
 -447.67475m  385.6923n  699.9999m   66.8922m  633.1081m 
 -447.57475m  387.8959n  699.9999m   67.0336m  632.9667m 
 -447.47475m  390.1123n  699.9999m   67.1751m  632.8252m 
 -447.37475m  392.3418n  699.9999m   67.3165m  632.6838m 
 -447.27475m  394.5843n  699.9999m   67.4579m  632.5424m 
 -447.17475m  396.8400n  699.9999m   67.5993m  632.4010m 
 -447.07475m  399.1089n  699.9999m   67.7407m  632.2596m 
 -446.97475m  401.3910n  699.9999m   67.8822m  632.1182m 
 -446.87475m  403.6866n  699.9999m   68.0236m  631.9767m 
 -446.77475m  405.9956n  699.9999m   68.1650m  631.8353m 
 -446.67475m  408.3181n  699.9999m   68.3064m  631.6939m 
 -446.57475m  410.6543n  699.9999m   68.4478m  631.5525m 
 -446.47475m  413.0042n  699.9999m   68.5893m  631.4111m 
 -446.37475m  415.3678n  699.9999m   68.7307m  631.2696m 
 -446.27475m  417.7453n  699.9999m   68.8721m  631.1282m 
 -446.17475m  420.1367n  699.9999m   69.0135m  630.9868m 
 -446.07475m  422.5422n  699.9999m   69.1549m  630.8454m 
 -445.97475m  424.9617n  699.9999m   69.2964m  630.7040m 
 -445.87475m  427.3955n  699.9999m   69.4378m  630.5625m 
 -445.77475m  429.8435n  699.9999m   69.5792m  630.4211m 
 -445.67475m  432.3059n  699.9999m   69.7206m  630.2797m 
 -445.57475m  434.7827n  699.9999m   69.8620m  630.1383m 
 -445.47475m  437.2741n  699.9999m   70.0035m  629.9969m 
 -445.37475m  439.7800n  699.9999m   70.1449m  629.8554m 
 -445.27475m  442.3007n  699.9999m   70.2863m  629.7140m 
 -445.17475m  444.8362n  699.9999m   70.4277m  629.5726m 
 -445.07475m  447.3865n  699.9999m   70.5692m  629.4312m 
 -444.97475m  449.9518n  699.9999m   70.7106m  629.2898m 
 -444.87475m  452.5322n  699.9999m   70.8520m  629.1484m 
 -444.77475m  455.1277n  699.9999m   70.9934m  629.0069m 
 -444.67475m  457.7384n  699.9999m   71.1348m  628.8655m 
 -444.57475m  460.3644n  699.9999m   71.2763m  628.7241m 
 -444.47475m  463.0059n  699.9999m   71.4177m  628.5827m 
 -444.37475m  465.6629n  699.9999m   71.5591m  628.4413m 
 -444.27475m  468.3354n  699.9999m   71.7005m  628.2998m 
 -444.17475m  471.0237n  699.9999m   71.8419m  628.1584m 
 -444.07475m  473.7277n  699.9999m   71.9834m  628.0170m 
 -443.97475m  476.4476n  699.9999m   72.1248m  627.8756m 
 -443.87475m  479.1835n  699.9999m   72.2662m  627.7342m 
 -443.77475m  481.9355n  699.9999m   72.4076m  627.5927m 
 -443.67475m  484.7036n  699.9999m   72.5490m  627.4513m 
 -443.57475m  487.4879n  699.9999m   72.6905m  627.3099m 
 -443.47475m  490.2887n  699.9999m   72.8319m  627.1685m 
 -443.37475m  493.1058n  699.9999m   72.9733m  627.0271m 
 -443.27475m  495.9395n  699.9999m   73.1147m  626.8857m 
 -443.17475m  498.7899n  699.9999m   73.2561m  626.7442m 
 -443.07475m  501.6570n  699.9999m   73.3976m  626.6028m 
 -442.97475m  504.5409n  699.9999m   73.5390m  626.4614m 
 -442.87475m  507.4418n  699.9999m   73.6804m  626.3200m 
 -442.77475m  510.3597n  699.9999m   73.8218m  626.1786m 
 -442.67475m  513.2948n  699.9999m   73.9633m  626.0371m 
 -442.57475m  516.2471n  699.9999m   74.1047m  625.8957m 
 -442.47475m  519.2168n  699.9999m   74.2461m  625.7543m 
 -442.37475m  522.2039n  699.9999m   74.3875m  625.6129m 
 -442.27475m  525.2086n  699.9999m   74.5289m  625.4715m 
 -442.17475m  528.2309n  699.9999m   74.6704m  625.3301m 
 -442.07475m  531.2710n  699.9999m   74.8118m  625.1886m 
 -441.97475m  534.3290n  699.9999m   74.9532m  625.0472m 
 -441.87475m  537.4050n  699.9999m   75.0946m  624.9058m 
 -441.77475m  540.4990n  699.9999m   75.2360m  624.7644m 
 -441.67475m  543.6112n  699.9999m   75.3775m  624.6230m 
 -441.57475m  546.7417n  699.9999m   75.5189m  624.4815m 
 -441.47475m  549.8907n  699.9999m   75.6603m  624.3401m 
 -441.37475m  553.0581n  699.9999m   75.8017m  624.1987m 
 -441.27475m  556.2442n  699.9999m   75.9431m  624.0573m 
 -441.17475m  559.4490n  699.9999m   76.0846m  623.9159m 
 -441.07475m  562.6727n  699.9999m   76.2260m  623.7745m 
 -440.97475m  565.9153n  699.9999m   76.3674m  623.6330m 
 -440.87475m  569.1770n  699.9999m   76.5088m  623.4916m 
 -440.77475m  572.4579n  699.9999m   76.6502m  623.3502m 
 -440.67475m  575.7580n  699.9999m   76.7917m  623.2088m 
 -440.57475m  579.0776n  699.9999m   76.9331m  623.0674m 
 -440.47475m  582.4168n  699.9999m   77.0745m  622.9259m 
 -440.37475m  585.7755n  699.9999m   77.2159m  622.7845m 
 -440.27475m  589.1541n  699.9999m   77.3573m  622.6431m 
 -440.17475m  592.5525n  699.9999m   77.4988m  622.5017m 
 -440.07475m  595.9709n  699.9999m   77.6402m  622.3603m 
 -439.97475m  599.4095n  699.9999m   77.7816m  622.2189m 
 -439.87475m  602.8682n  699.9999m   77.9230m  622.0774m 
 -439.77475m  606.3474n  699.9999m   78.0644m  621.9360m 
 -439.67475m  609.8470n  699.9999m   78.2059m  621.7946m 
 -439.57475m  613.3672n  699.9999m   78.3473m  621.6532m 
 -439.47475m  616.9081n  699.9999m   78.4887m  621.5118m 
 -439.37475m  620.4699n  699.9999m   78.6301m  621.3703m 
 -439.27475m  624.0527n  699.9999m   78.7716m  621.2289m 
 -439.17475m  627.6565n  699.9999m   78.9130m  621.0875m 
 -439.07475m  631.2816n  699.9999m   79.0544m  620.9461m 
 -438.97475m  634.9281n  699.9999m   79.1958m  620.8047m 
 -438.87475m  638.5960n  699.9999m   79.3372m  620.6633m 
 -438.77475m  642.2855n  699.9999m   79.4787m  620.5218m 
 -438.67475m  645.9967n  699.9999m   79.6201m  620.3804m 
 -438.57475m  649.7298n  699.9999m   79.7615m  620.2390m 
 -438.47475m  653.4849n  699.9998m   79.9029m  620.0976m 
 -438.37475m  657.2621n  699.9998m   80.0443m  619.9562m 
 -438.27475m  661.0616n  699.9998m   80.1858m  619.8148m 
 -438.17475m  664.8834n  699.9998m   80.3272m  619.6733m 
 -438.07475m  668.7278n  699.9998m   80.4686m  619.5319m 
 -437.97475m  672.5948n  699.9998m   80.6100m  619.3905m 
 -437.87475m  676.4846n  699.9998m   80.7514m  619.2491m 
 -437.77475m  680.3974n  699.9998m   80.8929m  619.1077m 
 -437.67475m  684.3332n  699.9998m   81.0343m  618.9662m 
 -437.57475m  688.2922n  699.9998m   81.1757m  618.8248m 
 -437.47475m  692.2745n  699.9998m   81.3171m  618.6834m 
 -437.37475m  696.2803n  699.9998m   81.4585m  618.5420m 
 -437.27475m  700.3098n  699.9998m   81.6000m  618.4006m 
 -437.17475m  704.3629n  699.9998m   81.7414m  618.2592m 
 -437.07475m  708.4400n  699.9998m   81.8828m  618.1177m 
 -436.97475m  712.5412n  699.9998m   82.0242m  617.9763m 
 -436.87475m  716.6665n  699.9998m   82.1656m  617.8349m 
 -436.77475m  720.8161n  699.9998m   82.3071m  617.6935m 
 -436.67475m  724.9902n  699.9998m   82.4485m  617.5521m 
 -436.57475m  729.1889n  699.9998m   82.5899m  617.4107m 
 -436.47475m  733.4124n  699.9998m   82.7313m  617.2692m 
 -436.37475m  737.6608n  699.9998m   82.8727m  617.1278m 
 -436.27475m  741.9343n  699.9998m   83.0142m  616.9864m 
 -436.17475m  746.2330n  699.9998m   83.1556m  616.8450m 
 -436.07475m  750.5570n  699.9998m   83.2970m  616.7036m 
 -435.97475m  754.9066n  699.9998m   83.4384m  616.5622m 
 -435.87475m  759.2818n  699.9998m   83.5798m  616.4207m 
 -435.77475m  763.6828n  699.9998m   83.7213m  616.2793m 
 -435.67475m  768.1098n  699.9998m   83.8627m  616.1379m 
 -435.57475m  772.5630n  699.9998m   84.0041m  615.9965m 
 -435.47475m  777.0424n  699.9998m   84.1455m  615.8551m 
 -435.37475m  781.5482n  699.9998m   84.2869m  615.7137m 
 -435.27475m  786.0807n  699.9998m   84.4284m  615.5722m 
 -435.17475m  790.6399n  699.9998m   84.5698m  615.4308m 
 -435.07475m  795.2260n  699.9998m   84.7112m  615.2894m 
 -434.97475m  799.8393n  699.9998m   84.8526m  615.1480m 
 -434.87475m  804.4797n  699.9998m   84.9941m  615.0066m 
 -434.77475m  809.1475n  699.9998m   85.1355m  614.8652m 
 -434.67475m  813.8430n  699.9998m   85.2769m  614.7237m 
 -434.57475m  818.5661n  699.9998m   85.4183m  614.5823m 
 -434.47475m  823.3171n  699.9998m   85.5597m  614.4409m 
 -434.37475m  828.0962n  699.9998m   85.7012m  614.2995m 
 -434.27475m  832.9036n  699.9998m   85.8426m  614.1581m 
 -434.17475m  837.7393n  699.9998m   85.9840m  614.0167m 
 -434.07475m  842.6036n  699.9998m   86.1254m  613.8752m 
 -433.97475m  847.4966n  699.9998m   86.2668m  613.7338m 
 -433.87475m  852.4185n  699.9998m   86.4083m  613.5924m 
 -433.77475m  857.3696n  699.9998m   86.5497m  613.4510m 
 -433.67475m  862.3498n  699.9998m   86.6911m  613.3096m 
 -433.57475m  867.3595n  699.9998m   86.8325m  613.1682m 
 -433.47475m  872.3989n  699.9998m   86.9739m  613.0267m 
 -433.37475m  877.4679n  699.9998m   87.1154m  612.8853m 
 -433.27475m  882.5670n  699.9998m   87.2568m  612.7439m 
 -433.17475m  887.6962n  699.9998m   87.3982m  612.6025m 
 -433.07475m  892.8557n  699.9998m   87.5396m  612.4611m 
 -432.97475m  898.0457n  699.9998m   87.6810m  612.3197m 
 -432.87475m  903.2665n  699.9998m   87.8225m  612.1782m 
 -432.77475m  908.5180n  699.9998m   87.9639m  612.0368m 
 -432.67475m  913.8007n  699.9998m   88.1053m  611.8954m 
 -432.57475m  919.1145n  699.9998m   88.2467m  611.7540m 
 -432.47475m  924.4598n  699.9998m   88.3881m  611.6126m 
 -432.37475m  929.8367n  699.9998m   88.5296m  611.4712m 
 -432.27475m  935.2454n  699.9998m   88.6710m  611.3297m 
 -432.17475m  940.6861n  699.9998m   88.8124m  611.1883m 
 -432.07475m  946.1590n  699.9998m   88.9538m  611.0469m 
 -431.97475m  951.6642n  699.9998m   89.0952m  610.9055m 
 -431.87475m  957.2021n  699.9998m   89.2367m  610.7641m 
 -431.77475m  962.7727n  699.9998m   89.3781m  610.6227m 
 -431.67475m  968.3762n  699.9998m   89.5195m  610.4812m 
 -431.57475m  974.0129n  699.9998m   89.6609m  610.3398m 
 -431.47475m  979.6830n  699.9998m   89.8023m  610.1984m 
 -431.37475m  985.3866n  699.9998m   89.9438m  610.0570m 
 -431.27475m  991.1240n  699.9998m   90.0852m  609.9156m 
 -431.17475m  996.8953n  699.9998m   90.2266m  609.7742m 
 -431.07475m    1.0027u  699.9998m   90.3680m  609.6328m 
 -430.97475m    1.0085u  699.9998m   90.5094m  609.4913m 
 -430.87475m    1.0144u  699.9998m   90.6509m  609.3499m 
 -430.77475m    1.0203u  699.9998m   90.7923m  609.2085m 
 -430.67475m    1.0263u  699.9998m   90.9337m  609.0671m 
 -430.57475m    1.0322u  699.9998m   91.0751m  608.9257m 
 -430.47475m    1.0383u  699.9998m   91.2165m  608.7843m 
 -430.37475m    1.0443u  699.9998m   91.3580m  608.6428m 
 -430.27475m    1.0504u  699.9998m   91.4994m  608.5014m 
 -430.17475m    1.0565u  699.9998m   91.6408m  608.3600m 
 -430.07475m    1.0627u  699.9998m   91.7822m  608.2186m 
 -429.97475m    1.0689u  699.9998m   91.9236m  608.0772m 
 -429.87475m    1.0751u  699.9998m   92.0651m  607.9358m 
 -429.77475m    1.0814u  699.9998m   92.2065m  607.7944m 
 -429.67475m    1.0877u  699.9998m   92.3479m  607.6529m 
 -429.57475m    1.0940u  699.9998m   92.4893m  607.5115m 
 -429.47475m    1.1004u  699.9998m   92.6307m  607.3701m 
 -429.37475m    1.1068u  699.9997m   92.7722m  607.2287m 
 -429.27475m    1.1133u  699.9997m   92.9136m  607.0873m 
 -429.17475m    1.1198u  699.9997m   93.0550m  606.9459m 
 -429.07475m    1.1263u  699.9997m   93.1964m  606.8045m 
 -428.97475m    1.1329u  699.9997m   93.3378m  606.6630m 
 -428.87475m    1.1395u  699.9997m   93.4793m  606.5216m 
 -428.77475m    1.1461u  699.9997m   93.6207m  606.3802m 
 -428.67475m    1.1528u  699.9997m   93.7621m  606.2388m 
 -428.57475m    1.1596u  699.9997m   93.9035m  606.0974m 
 -428.47475m    1.1663u  699.9997m   94.0449m  605.9560m 
 -428.37475m    1.1731u  699.9997m   94.1864m  605.8145m 
 -428.27475m    1.1800u  699.9997m   94.3278m  605.6731m 
 -428.17475m    1.1869u  699.9997m   94.4692m  605.5317m 
 -428.07475m    1.1938u  699.9997m   94.6106m  605.3903m 
 -427.97475m    1.2008u  699.9997m   94.7520m  605.2489m 
 -427.87475m    1.2078u  699.9997m   94.8935m  605.1075m 
 -427.77475m    1.2149u  699.9997m   95.0349m  604.9661m 
 -427.67475m    1.2220u  699.9997m   95.1763m  604.8246m 
 -427.57475m    1.2291u  699.9997m   95.3177m  604.6832m 
 -427.47475m    1.2363u  699.9997m   95.4591m  604.5418m 
 -427.37475m    1.2435u  699.9997m   95.6006m  604.4004m 
 -427.27475m    1.2508u  699.9997m   95.7420m  604.2590m 
 -427.17475m    1.2581u  699.9997m   95.8834m  604.1176m 
 -427.07475m    1.2654u  699.9997m   96.0248m  603.9762m 
 -426.97475m    1.2728u  699.9997m   96.1662m  603.8348m 
 -426.87475m    1.2803u  699.9997m   96.3077m  603.6933m 
 -426.77475m    1.2878u  699.9997m   96.4491m  603.5519m 
 -426.67475m    1.2953u  699.9997m   96.5905m  603.4105m 
 -426.57475m    1.3029u  699.9997m   96.7319m  603.2691m 
 -426.47475m    1.3105u  699.9997m   96.8733m  603.1277m 
 -426.37475m    1.3181u  699.9997m   97.0148m  602.9863m 
 -426.27475m    1.3259u  699.9997m   97.1562m  602.8449m 
 -426.17475m    1.3336u  699.9997m   97.2976m  602.7034m 
 -426.07475m    1.3414u  699.9997m   97.4390m  602.5620m 
 -425.97475m    1.3493u  699.9997m   97.5804m  602.4206m 
 -425.87475m    1.3572u  699.9997m   97.7219m  602.2792m 
 -425.77475m    1.3651u  699.9997m   97.8633m  602.1378m 
 -425.67475m    1.3731u  699.9997m   98.0047m  601.9964m 
 -425.57475m    1.3811u  699.9997m   98.1461m  601.8550m 
 -425.47475m    1.3892u  699.9997m   98.2875m  601.7135m 
 -425.37475m    1.3973u  699.9997m   98.4290m  601.5721m 
 -425.27475m    1.4055u  699.9997m   98.5704m  601.4307m 
 -425.17475m    1.4137u  699.9997m   98.7118m  601.2893m 
 -425.07475m    1.4220u  699.9997m   98.8532m  601.1479m 
 -424.97475m    1.4304u  699.9997m   98.9946m  601.0065m 
 -424.87475m    1.4387u  699.9997m   99.1360m  600.8651m 
 -424.77475m    1.4472u  699.9997m   99.2775m  600.7237m 
 -424.67475m    1.4556u  699.9997m   99.4189m  600.5822m 
 -424.57475m    1.4642u  699.9997m   99.5603m  600.4408m 
 -424.47475m    1.4727u  699.9997m   99.7017m  600.2994m 
 -424.37475m    1.4814u  699.9997m   99.8431m  600.1580m 
 -424.27475m    1.4901u  699.9997m   99.9846m  600.0166m 
 -424.17475m    1.4988u  699.9997m  100.1260m  599.8752m 
 -424.07475m    1.5076u  699.9997m  100.2674m  599.7338m 
 -423.97475m    1.5164u  699.9997m  100.4088m  599.5924m 
 -423.87475m    1.5253u  699.9997m  100.5502m  599.4509m 
 -423.77475m    1.5342u  699.9997m  100.6917m  599.3095m 
 -423.67475m    1.5432u  699.9997m  100.8331m  599.1681m 
 -423.57475m    1.5523u  699.9997m  100.9745m  599.0267m 
 -423.47475m    1.5614u  699.9997m  101.1159m  598.8853m 
 -423.37475m    1.5705u  699.9996m  101.2573m  598.7439m 
 -423.27475m    1.5797u  699.9996m  101.3988m  598.6025m 
 -423.17475m    1.5890u  699.9996m  101.5402m  598.4611m 
 -423.07475m    1.5983u  699.9996m  101.6816m  598.3196m 
 -422.97475m    1.6077u  699.9996m  101.8230m  598.1782m 
 -422.87475m    1.6171u  699.9996m  101.9644m  598.0368m 
 -422.77475m    1.6266u  699.9996m  102.1059m  597.8954m 
 -422.67475m    1.6362u  699.9996m  102.2473m  597.7540m 
 -422.57475m    1.6458u  699.9996m  102.3887m  597.6126m 
 -422.47475m    1.6554u  699.9996m  102.5301m  597.4712m 
 -422.37475m    1.6652u  699.9996m  102.6715m  597.3298m 
 -422.27475m    1.6749u  699.9996m  102.8130m  597.1883m 
 -422.17475m    1.6848u  699.9996m  102.9544m  597.0469m 
 -422.07475m    1.6947u  699.9996m  103.0958m  596.9055m 
 -421.97475m    1.7046u  699.9996m  103.2372m  596.7641m 
 -421.87475m    1.7146u  699.9996m  103.3786m  596.6227m 
 -421.77475m    1.7247u  699.9996m  103.5200m  596.4813m 
 -421.67475m    1.7348u  699.9996m  103.6615m  596.3399m 
 -421.57475m    1.7450u  699.9996m  103.8029m  596.1985m 
 -421.47475m    1.7552u  699.9996m  103.9443m  596.0571m 
 -421.37475m    1.7656u  699.9996m  104.0857m  595.9156m 
 -421.27475m    1.7759u  699.9996m  104.2271m  595.7742m 
 -421.17475m    1.7864u  699.9996m  104.3686m  595.6328m 
 -421.07475m    1.7969u  699.9996m  104.5100m  595.4914m 
 -420.97475m    1.8074u  699.9996m  104.6514m  595.3500m 
 -420.87475m    1.8180u  699.9996m  104.7928m  595.2086m 
 -420.77475m    1.8287u  699.9996m  104.9342m  595.0672m 
 -420.67475m    1.8395u  699.9996m  105.0757m  594.9258m 
 -420.57475m    1.8503u  699.9996m  105.2171m  594.7844m 
 -420.47475m    1.8612u  699.9996m  105.3585m  594.6430m 
 -420.37475m    1.8721u  699.9996m  105.4999m  594.5015m 
 -420.27475m    1.8831u  699.9996m  105.6413m  594.3601m 
 -420.17475m    1.8942u  699.9996m  105.7828m  594.2187m 
 -420.07475m    1.9053u  699.9996m  105.9242m  594.0773m 
 -419.97475m    1.9165u  699.9996m  106.0656m  593.9359m 
 -419.87475m    1.9278u  699.9996m  106.2070m  593.7945m 
 -419.77475m    1.9391u  699.9996m  106.3484m  593.6531m 
 -419.67475m    1.9506u  699.9996m  106.4898m  593.5117m 
 -419.57475m    1.9620u  699.9996m  106.6313m  593.3703m 
 -419.47475m    1.9736u  699.9996m  106.7727m  593.2288m 
 -419.37475m    1.9852u  699.9996m  106.9141m  593.0874m 
 -419.27475m    1.9969u  699.9996m  107.0555m  592.9460m 
 -419.17475m    2.0086u  699.9996m  107.1969m  592.8046m 
 -419.07475m    2.0204u  699.9996m  107.3384m  592.6632m 
 -418.97475m    2.0323u  699.9995m  107.4798m  592.5218m 
 -418.87475m    2.0443u  699.9995m  107.6212m  592.3804m 
 -418.77475m    2.0563u  699.9995m  107.7626m  592.2390m 
 -418.67475m    2.0684u  699.9995m  107.9040m  592.0976m 
 -418.57475m    2.0806u  699.9995m  108.0455m  591.9562m 
 -418.47475m    2.0929u  699.9995m  108.1869m  591.8148m 
 -418.37475m    2.1052u  699.9995m  108.3283m  591.6733m 
 -418.27475m    2.1176u  699.9995m  108.4697m  591.5319m 
 -418.17475m    2.1301u  699.9995m  108.6111m  591.3905m 
 -418.07475m    2.1426u  699.9995m  108.7525m  591.2491m 
 -417.97475m    2.1552u  699.9995m  108.8940m  591.1077m 
 -417.87475m    2.1679u  699.9995m  109.0354m  590.9663m 
 -417.77475m    2.1807u  699.9995m  109.1768m  590.8249m 
 -417.67475m    2.1936u  699.9995m  109.3182m  590.6835m 
 -417.57475m    2.2065u  699.9995m  109.4596m  590.5421m 
 -417.47475m    2.2195u  699.9995m  109.6011m  590.4007m 
 -417.37475m    2.2326u  699.9995m  109.7425m  590.2593m 
 -417.27475m    2.2457u  699.9995m  109.8839m  590.1179m 
 -417.17475m    2.2590u  699.9995m  110.0253m  589.9764m 
 -417.07475m    2.2723u  699.9995m  110.1667m  589.8350m 
 -416.97475m    2.2857u  699.9995m  110.3082m  589.6936m 
 -416.87475m    2.2992u  699.9995m  110.4496m  589.5522m 
 -416.77475m    2.3127u  699.9995m  110.5910m  589.4108m 
 -416.67475m    2.3264u  699.9995m  110.7324m  589.2694m 
 -416.57475m    2.3401u  699.9995m  110.8738m  589.1280m 
 -416.47475m    2.3539u  699.9995m  111.0152m  588.9866m 
 -416.37475m    2.3678u  699.9995m  111.1567m  588.8452m 
 -416.27475m    2.3818u  699.9995m  111.2981m  588.7038m 
 -416.17475m    2.3958u  699.9995m  111.4395m  588.5624m 
 -416.07475m    2.4099u  699.9995m  111.5809m  588.4210m 
 -415.97475m    2.4242u  699.9995m  111.7223m  588.2796m 
 -415.87475m    2.4385u  699.9995m  111.8638m  588.1381m 
 -415.77475m    2.4529u  699.9995m  112.0052m  587.9967m 
 -415.67475m    2.4673u  699.9995m  112.1466m  587.8553m 
 -415.57475m    2.4819u  699.9995m  112.2880m  587.7139m 
 -415.47475m    2.4966u  699.9994m  112.4294m  587.5725m 
 -415.37475m    2.5113u  699.9994m  112.5708m  587.4311m 
 -415.27475m    2.5261u  699.9994m  112.7123m  587.2897m 
 -415.17475m    2.5410u  699.9994m  112.8537m  587.1483m 
 -415.07475m    2.5560u  699.9994m  112.9951m  587.0069m 
 -414.97475m    2.5711u  699.9994m  113.1365m  586.8655m 
 -414.87475m    2.5863u  699.9994m  113.2779m  586.7241m 
 -414.77475m    2.6016u  699.9994m  113.4194m  586.5827m 
 -414.67475m    2.6170u  699.9994m  113.5608m  586.4413m 
 -414.57475m    2.6324u  699.9994m  113.7022m  586.2999m 
 -414.47475m    2.6480u  699.9994m  113.8436m  586.1585m 
 -414.37475m    2.6636u  699.9994m  113.9850m  586.0171m 
 -414.27475m    2.6794u  699.9994m  114.1264m  585.8756m 
 -414.17475m    2.6952u  699.9994m  114.2679m  585.7342m 
 -414.07475m    2.7111u  699.9994m  114.4093m  585.5928m 
 -413.97475m    2.7272u  699.9994m  114.5507m  585.4514m 
 -413.87475m    2.7433u  699.9994m  114.6921m  585.3100m 
 -413.77475m    2.7595u  699.9994m  114.8335m  585.1686m 
 -413.67475m    2.7758u  699.9994m  114.9750m  585.0272m 
 -413.57475m    2.7922u  699.9994m  115.1164m  584.8858m 
 -413.47475m    2.8087u  699.9994m  115.2578m  584.7444m 
 -413.37475m    2.8253u  699.9994m  115.3992m  584.6030m 
 -413.27475m    2.8421u  699.9994m  115.5406m  584.4616m 
 -413.17475m    2.8589u  699.9994m  115.6820m  584.3202m 
 -413.07475m    2.8758u  699.9994m  115.8235m  584.1788m 
 -412.97475m    2.8928u  699.9994m  115.9649m  584.0374m 
 -412.87475m    2.9099u  699.9994m  116.1063m  583.8960m 
 -412.77475m    2.9271u  699.9994m  116.2477m  583.7546m 
 -412.67475m    2.9444u  699.9994m  116.3891m  583.6132m 
 -412.57475m    2.9619u  699.9993m  116.5305m  583.4718m 
 -412.47475m    2.9794u  699.9993m  116.6720m  583.3304m 
 -412.37475m    2.9970u  699.9993m  116.8134m  583.1890m 
 -412.27475m    3.0148u  699.9993m  116.9548m  583.0476m 
 -412.17475m    3.0326u  699.9993m  117.0962m  582.9061m 
 -412.07475m    3.0506u  699.9993m  117.2376m  582.7647m 
 -411.97475m    3.0686u  699.9993m  117.3791m  582.6233m 
 -411.87475m    3.0868u  699.9993m  117.5205m  582.4819m 
 -411.77475m    3.1051u  699.9993m  117.6619m  582.3405m 
 -411.67475m    3.1234u  699.9993m  117.8033m  582.1991m 
 -411.57475m    3.1419u  699.9993m  117.9447m  582.0577m 
 -411.47475m    3.1606u  699.9993m  118.0861m  581.9163m 
 -411.37475m    3.1793u  699.9993m  118.2276m  581.7749m 
 -411.27475m    3.1981u  699.9993m  118.3690m  581.6335m 
 -411.17475m    3.2171u  699.9993m  118.5104m  581.4921m 
 -411.07475m    3.2361u  699.9993m  118.6518m  581.3507m 
 -410.97475m    3.2553u  699.9993m  118.7932m  581.2093m 
 -410.87475m    3.2746u  699.9993m  118.9346m  581.0679m 
 -410.77475m    3.2940u  699.9993m  119.0761m  580.9265m 
 -410.67475m    3.3135u  699.9993m  119.2175m  580.7851m 
 -410.57475m    3.3331u  699.9993m  119.3589m  580.6437m 
 -410.47475m    3.3529u  699.9993m  119.5003m  580.5023m 
 -410.37475m    3.3728u  699.9993m  119.6417m  580.3609m 
 -410.27475m    3.3928u  699.9993m  119.7831m  580.2195m 
 -410.17475m    3.4129u  699.9993m  119.9246m  580.0781m 
 -410.07475m    3.4331u  699.9992m  120.0660m  579.9367m 
 -409.97475m    3.4535u  699.9992m  120.2074m  579.7953m 
 -409.87475m    3.4740u  699.9992m  120.3488m  579.6539m 
 -409.77475m    3.4946u  699.9992m  120.4902m  579.5125m 
 -409.67475m    3.5153u  699.9992m  120.6316m  579.3711m 
 -409.57475m    3.5361u  699.9992m  120.7731m  579.2297m 
 -409.47475m    3.5571u  699.9992m  120.9145m  579.0883m 
 -409.37475m    3.5782u  699.9992m  121.0559m  578.9469m 
 -409.27475m    3.5995u  699.9992m  121.1973m  578.8055m 
 -409.17475m    3.6208u  699.9992m  121.3387m  578.6641m 
 -409.07475m    3.6423u  699.9992m  121.4801m  578.5227m 
 -408.97475m    3.6639u  699.9992m  121.6216m  578.3813m 
 -408.87475m    3.6857u  699.9992m  121.7630m  578.2399m 
 -408.77475m    3.7075u  699.9992m  121.9044m  578.0985m 
 -408.67475m    3.7295u  699.9992m  122.0458m  577.9571m 
 -408.57475m    3.7517u  699.9992m  122.1872m  577.8157m 
 -408.47475m    3.7740u  699.9992m  122.3286m  577.6743m 
 -408.37475m    3.7964u  699.9992m  122.4701m  577.5329m 
 -408.27475m    3.8189u  699.9992m  122.6115m  577.3915m 
 -408.17475m    3.8416u  699.9992m  122.7529m  577.2501m 
 -408.07475m    3.8644u  699.9992m  122.8943m  577.1087m 
 -407.97475m    3.8874u  699.9992m  123.0357m  576.9673m 
 -407.87475m    3.9104u  699.9991m  123.1771m  576.8259m 
 -407.77475m    3.9337u  699.9991m  123.3186m  576.6845m 
 -407.67475m    3.9570u  699.9991m  123.4600m  576.5431m 
 -407.57475m    3.9806u  699.9991m  123.6014m  576.4017m 
 -407.47475m    4.0042u  699.9991m  123.7428m  576.2603m 
 -407.37475m    4.0280u  699.9991m  123.8842m  576.1189m 
 -407.27475m    4.0519u  699.9991m  124.0256m  575.9775m 
 -407.17475m    4.0760u  699.9991m  124.1671m  575.8361m 
 -407.07475m    4.1002u  699.9991m  124.3085m  575.6947m 
 -406.97475m    4.1246u  699.9991m  124.4499m  575.5533m 
 -406.87475m    4.1491u  699.9991m  124.5913m  575.4119m 
 -406.77475m    4.1738u  699.9991m  124.7327m  575.2705m 
 -406.67475m    4.1986u  699.9991m  124.8741m  575.1291m 
 -406.57475m    4.2236u  699.9991m  125.0156m  574.9877m 
 -406.47475m    4.2487u  699.9991m  125.1570m  574.8463m 
 -406.37475m    4.2740u  699.9991m  125.2984m  574.7050m 
 -406.27475m    4.2994u  699.9991m  125.4398m  574.5636m 
 -406.17475m    4.3250u  699.9991m  125.5812m  574.4222m 
 -406.07475m    4.3507u  699.9991m  125.7226m  574.2808m 
 -405.97475m    4.3766u  699.9990m  125.8641m  574.1394m 
 -405.87475m    4.4026u  699.9990m  126.0055m  573.9980m 
 -405.77475m    4.4288u  699.9990m  126.1469m  573.8566m 
 -405.67475m    4.4552u  699.9990m  126.2883m  573.7152m 
 -405.57475m    4.4817u  699.9990m  126.4297m  573.5738m 
 -405.47475m    4.5083u  699.9990m  126.5711m  573.4324m 
 -405.37475m    4.5352u  699.9990m  126.7126m  573.2910m 
 -405.27475m    4.5622u  699.9990m  126.8540m  573.1496m 
 -405.17475m    4.5893u  699.9990m  126.9954m  573.0082m 
 -405.07475m    4.6167u  699.9990m  127.1368m  572.8668m 
 -404.97475m    4.6441u  699.9990m  127.2782m  572.7254m 
 -404.87475m    4.6718u  699.9990m  127.4196m  572.5840m 
 -404.77475m    4.6996u  699.9990m  127.5610m  572.4426m 
 -404.67475m    4.7276u  699.9990m  127.7025m  572.3012m 
 -404.57475m    4.7558u  699.9990m  127.8439m  572.1598m 
 -404.47475m    4.7841u  699.9990m  127.9853m  572.0185m 
 -404.37475m    4.8126u  699.9990m  128.1267m  571.8771m 
 -404.27475m    4.8413u  699.9990m  128.2681m  571.7357m 
 -404.17475m    4.8701u  699.9989m  128.4095m  571.5943m 
 -404.07475m    4.8991u  699.9989m  128.5510m  571.4529m 
 -403.97475m    4.9283u  699.9989m  128.6924m  571.3115m 
 -403.87475m    4.9577u  699.9989m  128.8338m  571.1701m 
 -403.77475m    4.9872u  699.9989m  128.9752m  571.0287m 
 -403.67475m    5.0169u  699.9989m  129.1166m  570.8873m 
 -403.57475m    5.0468u  699.9989m  129.2580m  570.7459m 
 -403.47475m    5.0769u  699.9989m  129.3994m  570.6045m 
 -403.37475m    5.1072u  699.9989m  129.5409m  570.4631m 
 -403.27475m    5.1376u  699.9989m  129.6823m  570.3218m 
 -403.17475m    5.1683u  699.9989m  129.8237m  570.1804m 
 -403.07475m    5.1991u  699.9989m  129.9651m  570.0390m 
 -402.97475m    5.2301u  699.9989m  130.1065m  569.8976m 
 -402.87475m    5.2613u  699.9989m  130.2479m  569.7562m 
 -402.77475m    5.2927u  699.9989m  130.3893m  569.6148m 
 -402.67475m    5.3242u  699.9988m  130.5308m  569.4734m 
 -402.57475m    5.3560u  699.9988m  130.6722m  569.3320m 
 -402.47475m    5.3880u  699.9988m  130.8136m  569.1906m 
 -402.37475m    5.4201u  699.9988m  130.9550m  569.0492m 
 -402.27475m    5.4524u  699.9988m  131.0964m  568.9079m 
 -402.17475m    5.4850u  699.9988m  131.2378m  568.7665m 
 -402.07475m    5.5177u  699.9988m  131.3792m  568.6251m 
 -401.97475m    5.5506u  699.9988m  131.5207m  568.4837m 
 -401.87475m    5.5838u  699.9988m  131.6621m  568.3423m 
 -401.77475m    5.6171u  699.9988m  131.8035m  568.2009m 
 -401.67475m    5.6506u  699.9988m  131.9449m  568.0595m 
 -401.57475m    5.6844u  699.9988m  132.0863m  567.9181m 
 -401.47475m    5.7183u  699.9988m  132.2277m  567.7768m 
 -401.37475m    5.7524u  699.9988m  132.3691m  567.6354m 
 -401.27475m    5.7868u  699.9988m  132.5106m  567.4940m 
 -401.17475m    5.8214u  699.9987m  132.6520m  567.3526m 
 -401.07475m    5.8561u  699.9987m  132.7934m  567.2112m 
 -400.97475m    5.8911u  699.9987m  132.9348m  567.0698m 
 -400.87475m    5.9263u  699.9987m  133.0762m  566.9284m 
 -400.77475m    5.9617u  699.9987m  133.2176m  566.7870m 
 -400.67475m    5.9973u  699.9987m  133.3590m  566.6457m 
 -400.57475m    6.0331u  699.9987m  133.5005m  566.5043m 
 -400.47475m    6.0692u  699.9987m  133.6419m  566.3629m 
 -400.37475m    6.1055u  699.9987m  133.7833m  566.2215m 
 -400.27475m    6.1420u  699.9987m  133.9247m  566.0801m 
 -400.17475m    6.1787u  699.9987m  134.0661m  565.9387m 
 -400.07475m    6.2156u  699.9987m  134.2075m  565.7973m 
 -399.97475m    6.2528u  699.9987m  134.3489m  565.6560m 
 -399.87475m    6.2901u  699.9986m  134.4904m  565.5146m 
 -399.77475m    6.3277u  699.9986m  134.6318m  565.3732m 
 -399.67475m    6.3656u  699.9986m  134.7732m  565.2318m 
 -399.57475m    6.4036u  699.9986m  134.9146m  565.0904m 
 -399.47475m    6.4419u  699.9986m  135.0560m  564.9490m 
 -399.37475m    6.4805u  699.9986m  135.1974m  564.8077m 
 -399.27475m    6.5192u  699.9986m  135.3388m  564.6663m 
 -399.17475m    6.5582u  699.9986m  135.4803m  564.5249m 
 -399.07475m    6.5975u  699.9986m  135.6217m  564.3835m 
 -398.97475m    6.6369u  699.9986m  135.7631m  564.2421m 
 -398.87475m    6.6766u  699.9986m  135.9045m  564.1008m 
 -398.77475m    6.7166u  699.9986m  136.0459m  563.9594m 
 -398.67475m    6.7568u  699.9985m  136.1873m  563.8180m 
 -398.57475m    6.7972u  699.9985m  136.3287m  563.6766m 
 -398.47475m    6.8379u  699.9985m  136.4701m  563.5352m 
 -398.37475m    6.8788u  699.9985m  136.6116m  563.3938m 
 -398.27475m    6.9200u  699.9985m  136.7530m  563.2525m 
 -398.17475m    6.9614u  699.9985m  136.8944m  563.1111m 
 -398.07475m    7.0031u  699.9985m  137.0358m  562.9697m 
 -397.97475m    7.0450u  699.9985m  137.1772m  562.8283m 
 -397.87475m    7.0872u  699.9985m  137.3186m  562.6870m 
 -397.77475m    7.1297u  699.9985m  137.4600m  562.5456m 
 -397.67475m    7.1724u  699.9985m  137.6014m  562.4042m 
 -397.57475m    7.2153u  699.9985m  137.7429m  562.2628m 
 -397.47475m    7.2585u  699.9984m  137.8843m  562.1214m 
 -397.37475m    7.3020u  699.9984m  138.0257m  561.9801m 
 -397.27475m    7.3458u  699.9984m  138.1671m  561.8387m 
 -397.17475m    7.3898u  699.9984m  138.3085m  561.6973m 
 -397.07475m    7.4340u  699.9984m  138.4499m  561.5559m 
 -396.97475m    7.4786u  699.9984m  138.5913m  561.4145m 
 -396.87475m    7.5234u  699.9984m  138.7327m  561.2732m 
 -396.77475m    7.5685u  699.9984m  138.8742m  561.1318m 
 -396.67475m    7.6139u  699.9984m  139.0156m  560.9904m 
 -396.57475m    7.6595u  699.9984m  139.1570m  560.8490m 
 -396.47475m    7.7054u  699.9984m  139.2984m  560.7077m 
 -396.37475m    7.7516u  699.9983m  139.4398m  560.5663m 
 -396.27475m    7.7981u  699.9983m  139.5812m  560.4249m 
 -396.17475m    7.8448u  699.9983m  139.7226m  560.2835m 
 -396.07475m    7.8919u  699.9983m  139.8640m  560.1422m 
 -395.97475m    7.9392u  699.9983m  140.0054m  560.0008m 
 -395.87475m    7.9868u  699.9983m  140.1469m  559.8594m 
 -395.77475m    8.0347u  699.9983m  140.2883m  559.7180m 
 -395.67475m    8.0829u  699.9983m  140.4297m  559.5767m 
 -395.57475m    8.1314u  699.9983m  140.5711m  559.4353m 
 -395.47475m    8.1802u  699.9983m  140.7125m  559.2939m 
 -395.37475m    8.2293u  699.9982m  140.8539m  559.1526m 
 -395.27475m    8.2787u  699.9982m  140.9953m  559.0112m 
 -395.17475m    8.3284u  699.9982m  141.1367m  558.8698m 
 -395.07475m    8.3783u  699.9982m  141.2781m  558.7284m 
 -394.97475m    8.4286u  699.9982m  141.4196m  558.5871m 
 -394.87475m    8.4792u  699.9982m  141.5610m  558.4457m 
 -394.77475m    8.5301u  699.9982m  141.7024m  558.3043m 
 -394.67475m    8.5813u  699.9982m  141.8438m  558.1630m 
 -394.57475m    8.6328u  699.9982m  141.9852m  558.0216m 
 -394.47475m    8.6847u  699.9981m  142.1266m  557.8802m 
 -394.37475m    8.7368u  699.9981m  142.2680m  557.7389m 
 -394.27475m    8.7893u  699.9981m  142.4094m  557.5975m 
 -394.17475m    8.8421u  699.9981m  142.5508m  557.4561m 
 -394.07475m    8.8952u  699.9981m  142.6923m  557.3147m 
 -393.97475m    8.9486u  699.9981m  142.8337m  557.1734m 
 -393.87475m    9.0024u  699.9981m  142.9751m  557.0320m 
 -393.77475m    9.0565u  699.9981m  143.1165m  556.8906m 
 -393.67475m    9.1109u  699.9981m  143.2579m  556.7493m 
 -393.57475m    9.1656u  699.9980m  143.3993m  556.6079m 
 -393.47475m    9.2207u  699.9980m  143.5407m  556.4665m 
 -393.37475m    9.2761u  699.9980m  143.6821m  556.3252m 
 -393.27475m    9.3319u  699.9980m  143.8235m  556.1838m 
 -393.17475m    9.3880u  699.9980m  143.9649m  556.0424m 
 -393.07475m    9.4444u  699.9980m  144.1064m  555.9011m 
 -392.97475m    9.5012u  699.9980m  144.2478m  555.7597m 
 -392.87475m    9.5583u  699.9980m  144.3892m  555.6184m 
 -392.77475m    9.6158u  699.9980m  144.5306m  555.4770m 
 -392.67475m    9.6736u  699.9979m  144.6720m  555.3356m 
 -392.57475m    9.7317u  699.9979m  144.8134m  555.1943m 
 -392.47475m    9.7903u  699.9979m  144.9548m  555.0529m 
 -392.37475m    9.8492u  699.9979m  145.0962m  554.9115m 
 -392.27475m    9.9084u  699.9979m  145.2376m  554.7702m 
 -392.17475m    9.9680u  699.9979m  145.3790m  554.6288m 
 -392.07475m   10.0280u  699.9979m  145.5204m  554.4875m 
 -391.97475m   10.0883u  699.9979m  145.6619m  554.3461m 
 -391.87475m   10.1490u  699.9978m  145.8033m  554.2047m 
 -391.77475m   10.2101u  699.9978m  145.9447m  554.0634m 
 -391.67475m   10.2715u  699.9978m  146.0861m  553.9220m 
 -391.57475m   10.3333u  699.9978m  146.2275m  553.7807m 
 -391.47475m   10.3955u  699.9978m  146.3689m  553.6393m 
 -391.37475m   10.4581u  699.9978m  146.5103m  553.4979m 
 -391.27475m   10.5211u  699.9978m  146.6517m  553.3566m 
 -391.17475m   10.5844u  699.9978m  146.7931m  553.2152m 
 -391.07475m   10.6481u  699.9977m  146.9345m  553.0739m 
 -390.97475m   10.7123u  699.9977m  147.0759m  552.9325m 
 -390.87475m   10.7768u  699.9977m  147.2173m  552.7911m 
 -390.77475m   10.8417u  699.9977m  147.3588m  552.6498m 
 -390.67475m   10.9070u  699.9977m  147.5002m  552.5084m 
 -390.57475m   10.9727u  699.9977m  147.6416m  552.3671m 
 -390.47475m   11.0388u  699.9977m  147.7830m  552.2257m 
 -390.37475m   11.1053u  699.9977m  147.9244m  552.0844m 
 -390.27475m   11.1722u  699.9976m  148.0658m  551.9430m 
 -390.17475m   11.2395u  699.9976m  148.2072m  551.8017m 
 -390.07475m   11.3072u  699.9976m  148.3486m  551.6603m 
 -389.97475m   11.3753u  699.9976m  148.4900m  551.5190m 
 -389.87475m   11.4439u  699.9976m  148.6314m  551.3776m 
 -389.77475m   11.5129u  699.9976m  148.7728m  551.2362m 
 -389.67475m   11.5823u  699.9976m  148.9142m  551.0949m 
 -389.57475m   11.6521u  699.9975m  149.0556m  550.9535m 
 -389.47475m   11.7223u  699.9975m  149.1971m  550.8122m 
 -389.37475m   11.7930u  699.9975m  149.3385m  550.6708m 
 -389.27475m   11.8641u  699.9975m  149.4799m  550.5295m 
 -389.17475m   11.9357u  699.9975m  149.6213m  550.3881m 
 -389.07475m   12.0076u  699.9975m  149.7627m  550.2468m 
 -388.97475m   12.0801u  699.9975m  149.9041m  550.1054m 
 -388.87475m   12.1529u  699.9974m  150.0455m  549.9641m 
 -388.77475m   12.2262u  699.9974m  150.1869m  549.8227m 
 -388.67475m   12.3000u  699.9974m  150.3283m  549.6814m 
 -388.57475m   12.3742u  699.9974m  150.4697m  549.5401m 
 -388.47475m   12.4489u  699.9974m  150.6111m  549.3987m 
 -388.37475m   12.5240u  699.9974m  150.7525m  549.2574m 
 -388.27475m   12.5996u  699.9973m  150.8939m  549.1160m 
 -388.17475m   12.6756u  699.9973m  151.0353m  548.9747m 
 -388.07475m   12.7521u  699.9973m  151.1767m  548.8333m 
 -387.97475m   12.8291u  699.9973m  151.3181m  548.6920m 
 -387.87475m   12.9065u  699.9973m  151.4596m  548.5506m 
 -387.77475m   12.9844u  699.9973m  151.6010m  548.4093m 
 -387.67475m   13.0628u  699.9972m  151.7424m  548.2679m 
 -387.57475m   13.1417u  699.9972m  151.8838m  548.1266m 
 -387.47475m   13.2211u  699.9972m  152.0252m  547.9853m 
 -387.37475m   13.3009u  699.9972m  152.1666m  547.8439m 
 -387.27475m   13.3812u  699.9972m  152.3080m  547.7026m 
 -387.17475m   13.4621u  699.9972m  152.4494m  547.5612m 
 -387.07475m   13.5434u  699.9972m  152.5908m  547.4199m 
 -386.97475m   13.6252u  699.9971m  152.7322m  547.2786m 
 -386.87475m   13.7075u  699.9971m  152.8736m  547.1372m 
 -386.77475m   13.7903u  699.9971m  153.0150m  546.9959m 
 -386.67475m   13.8736u  699.9971m  153.1564m  546.8545m 
 -386.57475m   13.9575u  699.9971m  153.2978m  546.7132m 
 -386.47475m   14.0418u  699.9971m  153.4392m  546.5719m 
 -386.37475m   14.1267u  699.9970m  153.5806m  546.4305m 
 -386.27475m   14.2121u  699.9970m  153.7220m  546.2892m 
 -386.17475m   14.2980u  699.9970m  153.8634m  546.1479m 
 -386.07475m   14.3844u  699.9970m  154.0048m  546.0065m 
 -385.97475m   14.4714u  699.9970m  154.1462m  545.8652m 
 -385.87475m   14.5589u  699.9969m  154.2876m  545.7239m 
 -385.77475m   14.6469u  699.9969m  154.4290m  545.5825m 
 -385.67475m   14.7355u  699.9969m  154.5705m  545.4412m 
 -385.57475m   14.8246u  699.9969m  154.7119m  545.2999m 
 -385.47475m   14.9143u  699.9969m  154.8533m  545.1585m 
 -385.37475m   15.0045u  699.9969m  154.9947m  545.0172m 
 -385.27475m   15.0953u  699.9968m  155.1361m  544.8759m 
 -385.17475m   15.1866u  699.9968m  155.2775m  544.7345m 
 -385.07475m   15.2785u  699.9968m  155.4189m  544.5932m 
 -384.97475m   15.3709u  699.9968m  155.5603m  544.4519m 
 -384.87475m   15.4639u  699.9968m  155.7017m  544.3106m 
 -384.77475m   15.5575u  699.9967m  155.8431m  544.1692m 
 -384.67475m   15.6517u  699.9967m  155.9845m  544.0279m 
 -384.57475m   15.7464u  699.9967m  156.1259m  543.8866m 
 -384.47475m   15.8417u  699.9967m  156.2673m  543.7452m 
 -384.37475m   15.9376u  699.9967m  156.4087m  543.6039m 
 -384.27475m   16.0341u  699.9966m  156.5501m  543.4626m 
 -384.17475m   16.1312u  699.9966m  156.6915m  543.3213m 
 -384.07475m   16.2289u  699.9966m  156.8329m  543.1799m 
 -383.97475m   16.3271u  699.9966m  156.9743m  543.0386m 
 -383.87475m   16.4260u  699.9966m  157.1157m  542.8973m 
 -383.77475m   16.5255u  699.9965m  157.2571m  542.7560m 
 -383.67475m   16.6256u  699.9965m  157.3985m  542.6147m 
 -383.57475m   16.7263u  699.9965m  157.5399m  542.4733m 
 -383.47475m   16.8277u  699.9965m  157.6813m  542.3320m 
 -383.37475m   16.9296u  699.9965m  157.8227m  542.1907m 
 -383.27475m   17.0322u  699.9964m  157.9641m  542.0494m 
 -383.17475m   17.1354u  699.9964m  158.1055m  541.9081m 
 -383.07475m   17.2392u  699.9964m  158.2469m  541.7667m 
 -382.97475m   17.3437u  699.9964m  158.3883m  541.6254m 
 -382.87475m   17.4488u  699.9964m  158.5297m  541.4841m 
 -382.77475m   17.5546u  699.9963m  158.6711m  541.3428m 
 -382.67475m   17.6610u  699.9963m  158.8125m  541.2015m 
 -382.57475m   17.7681u  699.9963m  158.9539m  541.0602m 
 -382.47475m   17.8758u  699.9963m  159.0953m  540.9189m 
 -382.37475m   17.9842u  699.9963m  159.2367m  540.7775m 
 -382.27475m   18.0933u  699.9962m  159.3781m  540.6362m 
 -382.17475m   18.2030u  699.9962m  159.5195m  540.4949m 
 -382.07475m   18.3134u  699.9962m  159.6609m  540.3536m 
 -381.97475m   18.4245u  699.9962m  159.8023m  540.2123m 
 -381.87475m   18.5362u  699.9961m  159.9437m  540.0710m 
 -381.77475m   18.6487u  699.9961m  160.0851m  539.9297m 
 -381.67475m   18.7618u  699.9961m  160.2265m  539.7884m 
 -381.57475m   18.8757u  699.9961m  160.3679m  539.6471m 
 -381.47475m   18.9902u  699.9960m  160.5093m  539.5058m 
 -381.37475m   19.1054u  699.9960m  160.6507m  539.3644m 
 -381.27475m   19.2214u  699.9960m  160.7921m  539.2231m 
 -381.17475m   19.3381u  699.9960m  160.9335m  539.0818m 
 -381.07475m   19.4554u  699.9960m  161.0749m  538.9405m 
 -380.97475m   19.5735u  699.9959m  161.2163m  538.7992m 
 -380.87475m   19.6924u  699.9959m  161.3577m  538.6579m 
 -380.77475m   19.8119u  699.9959m  161.4991m  538.5166m 
 -380.67475m   19.9322u  699.9959m  161.6405m  538.3753m 
 -380.57475m   20.0533u  699.9958m  161.7819m  538.2340m 
 -380.47475m   20.1750u  699.9958m  161.9233m  538.0927m 
 -380.37475m   20.2976u  699.9958m  162.0647m  537.9514m 
 -380.27475m   20.4209u  699.9958m  162.2061m  537.8101m 
 -380.17475m   20.5449u  699.9957m  162.3475m  537.6688m 
 -380.07475m   20.6697u  699.9957m  162.4888m  537.5275m 
 -379.97475m   20.7953u  699.9957m  162.6302m  537.3862m 
 -379.87475m   20.9216u  699.9957m  162.7716m  537.2449m 
 -379.77475m   21.0488u  699.9956m  162.9130m  537.1036m 
 -379.67475m   21.1767u  699.9956m  163.0544m  536.9624m 
 -379.57475m   21.3054u  699.9956m  163.1958m  536.8211m 
 -379.47475m   21.4349u  699.9956m  163.3372m  536.6798m 
 -379.37475m   21.5652u  699.9955m  163.4786m  536.5385m 
 -379.27475m   21.6962u  699.9955m  163.6200m  536.3972m 
 -379.17475m   21.8281u  699.9955m  163.7614m  536.2559m 
 -379.07475m   21.9608u  699.9954m  163.9028m  536.1146m 
 -378.97475m   22.0944u  699.9954m  164.0442m  535.9733m 
 -378.87475m   22.2287u  699.9954m  164.1856m  535.8320m 
 -378.77475m   22.3639u  699.9954m  164.3270m  535.6907m 
 -378.67475m   22.4999u  699.9953m  164.4684m  535.5495m 
 -378.57475m   22.6368u  699.9953m  164.6098m  535.4082m 
 -378.47475m   22.7745u  699.9953m  164.7512m  535.2669m 
 -378.37475m   22.9130u  699.9953m  164.8926m  535.1256m 
 -378.27475m   23.0524u  699.9952m  165.0340m  534.9843m 
 -378.17475m   23.1927u  699.9952m  165.1753m  534.8430m 
 -378.07475m   23.3338u  699.9952m  165.3167m  534.7018m 
 -377.97475m   23.4758u  699.9951m  165.4581m  534.5605m 
 -377.87475m   23.6186u  699.9951m  165.5995m  534.4192m 
 -377.77475m   23.7624u  699.9951m  165.7409m  534.2779m 
 -377.67475m   23.9070u  699.9951m  165.8823m  534.1367m 
 -377.57475m   24.0525u  699.9950m  166.0237m  533.9954m 
 -377.47475m   24.1990u  699.9950m  166.1651m  533.8541m 
 -377.37475m   24.3463u  699.9950m  166.3065m  533.7128m 
 -377.27475m   24.4945u  699.9949m  166.4479m  533.5716m 
 -377.17475m   24.6437u  699.9949m  166.5893m  533.4303m 
 -377.07475m   24.7938u  699.9949m  166.7307m  533.2890m 
 -376.97475m   24.9448u  699.9949m  166.8721m  533.1477m 
 -376.87475m   25.0967u  699.9948m  167.0134m  533.0065m 
 -376.77475m   25.2496u  699.9948m  167.1548m  532.8652m 
 -376.67475m   25.4034u  699.9948m  167.2962m  532.7239m 
 -376.57475m   25.5581u  699.9947m  167.4376m  532.5827m 
 -376.47475m   25.7138u  699.9947m  167.5790m  532.4414m 
 -376.37475m   25.8705u  699.9947m  167.7204m  532.3001m 
 -376.27475m   26.0282u  699.9946m  167.8618m  532.1589m 
 -376.17475m   26.1868u  699.9946m  168.0032m  532.0176m 
 -376.07475m   26.3464u  699.9946m  168.1446m  531.8764m 
 -375.97475m   26.5070u  699.9945m  168.2860m  531.7351m 
 -375.87475m   26.6685u  699.9945m  168.4273m  531.5938m 
 -375.77475m   26.8311u  699.9945m  168.5687m  531.4526m 
 -375.67475m   26.9947u  699.9944m  168.7101m  531.3113m 
 -375.57475m   27.1593u  699.9944m  168.8515m  531.1701m 
 -375.47475m   27.3249u  699.9944m  168.9929m  531.0288m 
 -375.37475m   27.4915u  699.9943m  169.1343m  530.8875m 
 -375.27475m   27.6592u  699.9943m  169.2757m  530.7463m 
 -375.17475m   27.8279u  699.9943m  169.4171m  530.6050m 
 -375.07475m   27.9976u  699.9942m  169.5584m  530.4638m 
 -374.97475m   28.1684u  699.9942m  169.6998m  530.3225m 
 -374.87475m   28.3402u  699.9942m  169.8412m  530.1813m 
 -374.77475m   28.5131u  699.9941m  169.9826m  530.0400m 
 -374.67475m   28.6871u  699.9941m  170.1240m  529.8988m 
 -374.57475m   28.8621u  699.9941m  170.2654m  529.7575m 
 -374.47475m   29.0383u  699.9940m  170.4068m  529.6163m 
 -374.37475m   29.2155u  699.9940m  170.5482m  529.4751m 
 -374.27475m   29.3938u  699.9940m  170.6895m  529.3338m 
 -374.17475m   29.5732u  699.9939m  170.8309m  529.1926m 
 -374.07475m   29.7538u  699.9939m  170.9723m  529.0513m 
 -373.97475m   29.9354u  699.9939m  171.1137m  528.9101m 
 -373.87475m   30.1182u  699.9938m  171.2551m  528.7689m 
 -373.77475m   30.3021u  699.9938m  171.3965m  528.6276m 
 -373.67475m   30.4871u  699.9937m  171.5378m  528.4864m 
 -373.57475m   30.6733u  699.9937m  171.6792m  528.3451m 
 -373.47475m   30.8606u  699.9937m  171.8206m  528.2039m 
 -373.37475m   31.0491u  699.9936m  171.9620m  528.0627m 
 -373.27475m   31.2388u  699.9936m  172.1034m  527.9214m 
 -373.17475m   31.4296u  699.9936m  172.2448m  527.7802m 
 -373.07475m   31.6216u  699.9935m  172.3862m  527.6390m 
 -372.97475m   31.8148u  699.9935m  172.5275m  527.4978m 
 -372.87475m   32.0092u  699.9934m  172.6689m  527.3565m 
 -372.77475m   32.2048u  699.9934m  172.8103m  527.2153m 
 -372.67475m   32.4016u  699.9934m  172.9517m  527.0741m 
 -372.57475m   32.5997u  699.9933m  173.0931m  526.9329m 
 -372.47475m   32.7989u  699.9933m  173.2344m  526.7916m 
 -372.37475m   32.9994u  699.9932m  173.3758m  526.6504m 
 -372.27475m   33.2012u  699.9932m  173.5172m  526.5092m 
 -372.17475m   33.4041u  699.9932m  173.6586m  526.3680m 
 -372.07475m   33.6084u  699.9931m  173.8000m  526.2268m 
 -371.97475m   33.8139u  699.9931m  173.9414m  526.0855m 
 -371.87475m   34.0207u  699.9930m  174.0827m  525.9443m 
 -371.77475m   34.2287u  699.9930m  174.2241m  525.8031m 
 -371.67475m   34.4381u  699.9930m  174.3655m  525.6619m 
 -371.57475m   34.6487u  699.9929m  174.5069m  525.5207m 
 -371.47475m   34.8607u  699.9929m  174.6483m  525.3795m 
 -371.37475m   35.0740u  699.9928m  174.7896m  525.2383m 
 -371.27475m   35.2885u  699.9928m  174.9310m  525.0971m 
 -371.17475m   35.5045u  699.9927m  175.0724m  524.9559m 
 -371.07475m   35.7217u  699.9927m  175.2138m  524.8147m 
 -370.97475m   35.9403u  699.9927m  175.3551m  524.6735m 
 -370.87475m   36.1603u  699.9926m  175.4965m  524.5323m 
 -370.77475m   36.3816u  699.9926m  175.6379m  524.3911m 
 -370.67475m   36.6043u  699.9925m  175.7793m  524.2499m 
 -370.57475m   36.8284u  699.9925m  175.9207m  524.1087m 
 -370.47475m   37.0539u  699.9924m  176.0620m  523.9675m 
 -370.37475m   37.2807u  699.9924m  176.2034m  523.8263m 
 -370.27475m   37.5090u  699.9924m  176.3448m  523.6851m 
 -370.17475m   37.7387u  699.9923m  176.4862m  523.5439m 
 -370.07475m   37.9698u  699.9923m  176.6275m  523.4027m 
 -369.97475m   38.2024u  699.9922m  176.7689m  523.2615m 
 -369.87475m   38.4364u  699.9922m  176.9103m  523.1203m 
 -369.77475m   38.6718u  699.9921m  177.0517m  522.9791m 
 -369.67475m   38.9087u  699.9921m  177.1930m  522.8379m 
 -369.57475m   39.1471u  699.9920m  177.3344m  522.6968m 
 -369.47475m   39.3869u  699.9920m  177.4758m  522.5556m 
 -369.37475m   39.6283u  699.9919m  177.6172m  522.4144m 
 -369.27475m   39.8711u  699.9919m  177.7585m  522.2732m 
 -369.17475m   40.1155u  699.9918m  177.8999m  522.1320m 
 -369.07475m   40.3613u  699.9918m  178.0413m  521.9909m 
 -368.97475m   40.6087u  699.9917m  178.1827m  521.8497m 
 -368.87475m   40.8577u  699.9917m  178.3240m  521.7085m 
 -368.77475m   41.1081u  699.9916m  178.4654m  521.5674m 
 -368.67475m   41.3602u  699.9916m  178.6068m  521.4262m 
 -368.57475m   41.6138u  699.9915m  178.7481m  521.2850m 
 -368.47475m   41.8689u  699.9915m  178.8895m  521.1439m 
 -368.37475m   42.1257u  699.9914m  179.0309m  521.0027m 
 -368.27475m   42.3840u  699.9914m  179.1723m  520.8615m 
 -368.17475m   42.6440u  699.9913m  179.3136m  520.7204m 
 -368.07475m   42.9056u  699.9913m  179.4550m  520.5792m 
 -367.97475m   43.1688u  699.9912m  179.5964m  520.4380m 
 -367.87475m   43.4336u  699.9912m  179.7377m  520.2969m 
 -367.77475m   43.7001u  699.9911m  179.8791m  520.1557m 
 -367.67475m   43.9682u  699.9911m  180.0205m  520.0146m 
 -367.57475m   44.2380u  699.9910m  180.1618m  519.8734m 
 -367.47475m   44.5095u  699.9910m  180.3032m  519.7323m 
 -367.37475m   44.7827u  699.9909m  180.4446m  519.5911m 
 -367.27475m   45.0575u  699.9909m  180.5859m  519.4500m 
 -367.17475m   45.3341u  699.9908m  180.7273m  519.3088m 
 -367.07475m   45.6124u  699.9908m  180.8687m  519.1677m 
 -366.97475m   45.8924u  699.9907m  181.0100m  519.0266m 
 -366.87475m   46.1742u  699.9906m  181.1514m  518.8854m 
 -366.77475m   46.4577u  699.9906m  181.2928m  518.7443m 
 -366.67475m   46.7430u  699.9905m  181.4341m  518.6031m 
 -366.57475m   47.0301u  699.9905m  181.5755m  518.4620m 
 -366.47475m   47.3189u  699.9904m  181.7169m  518.3209m 
 -366.37475m   47.6095u  699.9904m  181.8582m  518.1797m 
 -366.27475m   47.9020u  699.9903m  181.9996m  518.0386m 
 -366.17475m   48.1963u  699.9903m  182.1410m  517.8975m 
 -366.07475m   48.4924u  699.9902m  182.2823m  517.7564m 
 -365.97475m   48.7903u  699.9901m  182.4237m  517.6152m 
 -365.87475m   49.0901u  699.9901m  182.5650m  517.4741m 
 -365.77475m   49.3917u  699.9900m  182.7064m  517.3330m 
 -365.67475m   49.6953u  699.9900m  182.8478m  517.1919m 
 -365.57475m   50.0007u  699.9899m  182.9891m  517.0508m 
 -365.47475m   50.3080u  699.9898m  183.1305m  516.9097m 
 -365.37475m   50.6173u  699.9898m  183.2719m  516.7685m 
 -365.27475m   50.9285u  699.9897m  183.4132m  516.6274m 
 -365.17475m   51.2416u  699.9897m  183.5546m  516.4863m 
 -365.07475m   51.5566u  699.9896m  183.6959m  516.3452m 
 -364.97475m   51.8736u  699.9895m  183.8373m  516.2041m 
 -364.87475m   52.1926u  699.9895m  183.9787m  516.0630m 
 -364.77475m   52.5136u  699.9894m  184.1200m  515.9219m 
 -364.67475m   52.8366u  699.9893m  184.2614m  515.7808m 
 -364.57475m   53.1616u  699.9893m  184.4027m  515.6397m 
 -364.47475m   53.4886u  699.9892m  184.5441m  515.4986m 
 -364.37475m   53.8176u  699.9891m  184.6854m  515.3575m 
 -364.27475m   54.1487u  699.9891m  184.8268m  515.2164m 
 -364.17475m   54.4819u  699.9890m  184.9682m  515.0753m 
 -364.07475m   54.8171u  699.9890m  185.1095m  514.9343m 
 -363.97475m   55.1545u  699.9889m  185.2509m  514.7932m 
 -363.87475m   55.4939u  699.9888m  185.3922m  514.6521m 
 -363.77475m   55.8355u  699.9888m  185.5336m  514.5110m 
 -363.67475m   56.1791u  699.9887m  185.6749m  514.3699m 
 -363.57475m   56.5250u  699.9886m  185.8163m  514.2289m 
 -363.47475m   56.8729u  699.9886m  185.9576m  514.0878m 
 -363.37475m   57.2231u  699.9885m  186.0990m  513.9467m 
 -363.27475m   57.5754u  699.9884m  186.2403m  513.8056m 
 -363.17475m   57.9299u  699.9883m  186.3817m  513.6646m 
 -363.07475m   58.2867u  699.9883m  186.5230m  513.5235m 
 -362.97475m   58.6456u  699.9882m  186.6644m  513.3825m 
 -362.87475m   59.0068u  699.9881m  186.8057m  513.2414m 
 -362.77475m   59.3703u  699.9881m  186.9471m  513.1003m 
 -362.67475m   59.7360u  699.9880m  187.0884m  512.9593m 
 -362.57475m   60.1040u  699.9879m  187.2298m  512.8182m 
 -362.47475m   60.4743u  699.9879m  187.3711m  512.6772m 
 -362.37475m   60.8469u  699.9878m  187.5125m  512.5361m 
 -362.27475m   61.2218u  699.9877m  187.6538m  512.3951m 
 -362.17475m   61.5991u  699.9876m  187.7952m  512.2540m 
 -362.07475m   61.9787u  699.9876m  187.9365m  512.1130m 
 -361.97475m   62.3607u  699.9875m  188.0779m  511.9720m 
 -361.87475m   62.7451u  699.9874m  188.2192m  511.8309m 
 -361.77475m   63.1319u  699.9873m  188.3606m  511.6899m 
 -361.67475m   63.5211u  699.9873m  188.5019m  511.5489m 
 -361.57475m   63.9127u  699.9872m  188.6433m  511.4078m 
 -361.47475m   64.3067u  699.9871m  188.7846m  511.2668m 
 -361.37475m   64.7033u  699.9870m  188.9260m  511.1258m 
 -361.27475m   65.1023u  699.9870m  189.0673m  510.9847m 
 -361.17475m   65.5038u  699.9869m  189.2086m  510.8437m 
 -361.07475m   65.9078u  699.9868m  189.3500m  510.7027m 
 -360.97475m   66.3143u  699.9867m  189.4913m  510.5617m 
 -360.87475m   66.7233u  699.9866m  189.6327m  510.4207m 
 -360.77475m   67.1350u  699.9866m  189.7740m  510.2797m 
 -360.67475m   67.5492u  699.9865m  189.9154m  510.1387m 
 -360.57475m   67.9659u  699.9864m  190.0567m  509.9977m 
 -360.47475m   68.3853u  699.9863m  190.1980m  509.8567m 
 -360.37475m   68.8073u  699.9862m  190.3394m  509.7157m 
 -360.27475m   69.2319u  699.9861m  190.4807m  509.5747m 
 -360.17475m   69.6592u  699.9861m  190.6221m  509.4337m 
 -360.07475m   70.0892u  699.9860m  190.7634m  509.2927m 
[...]
  468.62525m  400.0000m    5.4849n  662.7362m -262.7362m 
  468.72525m  400.0000m    5.4849n  662.8776m -262.8776m 
  468.82525m  400.0000m    5.4849n  663.0190m -263.0190m 
  468.92525m  400.0000m    5.4849n  663.1605m -263.1605m 
  469.02525m  400.0000m    5.4848n  663.3019m -263.3019m 
  469.12525m  400.0000m    5.4848n  663.4433m -263.4433m 
  469.22525m  400.0000m    5.4848n  663.5847m -263.5847m 
  469.32525m  400.0000m    5.4848n  663.7261m -263.7261m 
  469.42525m  400.0000m    5.4848n  663.8676m -263.8676m 
  469.52525m  400.0000m    5.4847n  664.0090m -264.0090m 
  469.62525m  400.0000m    5.4847n  664.1504m -264.1504m 
  469.72525m  400.0000m    5.4847n  664.2918m -264.2918m 
  469.82525m  400.0000m    5.4847n  664.4333m -264.4332m 
  469.92525m  400.0000m    5.4847n  664.5747m -264.5747m 
  470.02525m  400.0000m    5.4847n  664.7161m -264.7161m 
  470.12525m  400.0000m    5.4847n  664.8575m -264.8575m 
  470.22525m  400.0000m    5.4847n  664.9989m -264.9989m 
  470.32525m  400.0000m    5.4847n  665.1404m -265.1404m 
  470.42525m  400.0000m    5.4847n  665.2818m -265.2818m 
  470.52525m  400.0000m    5.4847n  665.4232m -265.4232m 
  470.62525m  400.0000m    5.4847n  665.5646m -265.5646m 
  470.72525m  400.0000m    5.4847n  665.7060m -265.7060m 
  470.82525m  400.0000m    5.4848n  665.8475m -265.8475m 
  470.92525m  400.0000m    5.4848n  665.9889m -265.9889m 
  471.02525m  400.0000m    5.4848n  666.1303m -266.1303m 
  471.12525m  400.0000m    5.4848n  666.2717m -266.2717m 
  471.22525m  400.0000m    5.4848n  666.4131m -266.4131m 
  471.32525m  400.0000m    5.4849n  666.5546m -266.5546m 
  471.42525m  400.0000m    5.4849n  666.6960m -266.6960m 
  471.52525m  400.0000m    5.4849n  666.8374m -266.8374m 
  471.62525m  400.0000m    5.4849n  666.9788m -266.9788m 
  471.72525m  400.0000m    5.4850n  667.1203m -267.1203m 
  471.82525m  400.0000m    5.4850n  667.2617m -267.2617m 
  471.92525m  400.0000m    5.4850n  667.4031m -267.4031m 
  472.02525m  400.0000m    5.4851n  667.5445m -267.5445m 
  472.12525m  400.0000m    5.4851n  667.6859m -267.6859m 
  472.22525m  400.0000m    5.4851n  667.8274m -267.8274m 
  472.32525m  400.0000m    5.4852n  667.9688m -267.9688m 
  472.42525m  400.0000m    5.4852n  668.1102m -268.1102m 
  472.52525m  400.0000m    5.4853n  668.2516m -268.2516m 
  472.62525m  400.0000m    5.4853n  668.3930m -268.3930m 
  472.72525m  400.0000m    5.4854n  668.5345m -268.5345m 
  472.82525m  400.0000m    5.4854n  668.6759m -268.6759m 
  472.92525m  400.0000m    5.4855n  668.8173m -268.8173m 
  473.02525m  400.0000m    5.4855n  668.9587m -268.9587m 
  473.12525m  400.0000m    5.4856n  669.1002m -269.1002m 
  473.22525m  400.0000m    5.4857n  669.2416m -269.2416m 
  473.32525m  400.0000m    5.4857n  669.3830m -269.3830m 
  473.42525m  400.0000m    5.4858n  669.5244m -269.5244m 
  473.52525m  400.0000m    5.4858n  669.6658m -269.6658m 
  473.62525m  400.0000m    5.4859n  669.8073m -269.8073m 
  473.72525m  400.0000m    5.4860n  669.9487m -269.9487m 
  473.82525m  400.0000m    5.4861n  670.0901m -270.0901m 
  473.92525m  400.0000m    5.4861n  670.2315m -270.2315m 
  474.02525m  400.0000m    5.4862n  670.3729m -270.3729m 
  474.12525m  400.0000m    5.4863n  670.5144m -270.5144m 
  474.22525m  400.0000m    5.4864n  670.6558m -270.6558m 
  474.32525m  400.0000m    5.4864n  670.7972m -270.7972m 
  474.42525m  400.0000m    5.4865n  670.9386m -270.9386m 
  474.52525m  400.0000m    5.4866n  671.0801m -271.0801m 
  474.62525m  400.0000m    5.4867n  671.2215m -271.2215m 
  474.72525m  400.0000m    5.4868n  671.3629m -271.3629m 
  474.82525m  400.0000m    5.4869n  671.5043m -271.5043m 
  474.92525m  400.0000m    5.4870n  671.6457m -271.6457m 
  475.02525m  400.0000m    5.4871n  671.7872m -271.7872m 
  475.12525m  400.0000m    5.4872n  671.9286m -271.9286m 
  475.22525m  400.0000m    5.4873n  672.0700m -272.0700m 
  475.32525m  400.0000m    5.4874n  672.2114m -272.2114m 
  475.42525m  400.0000m    5.4875n  672.3528m -272.3528m 
  475.52525m  400.0000m    5.4876n  672.4943m -272.4943m 
  475.62525m  400.0000m    5.4877n  672.6357m -272.6357m 
  475.72525m  400.0000m    5.4878n  672.7771m -272.7771m 
  475.82525m  400.0000m    5.4879n  672.9185m -272.9185m 
  475.92525m  400.0000m    5.4880n  673.0600m -273.0599m 
  476.02525m  400.0000m    5.4881n  673.2014m -273.2014m 
  476.12525m  400.0000m    5.4882n  673.3428m -273.3428m 
  476.22525m  400.0000m    5.4884n  673.4842m -273.4842m 
  476.32525m  400.0000m    5.4885n  673.6256m -273.6256m 
  476.42525m  400.0000m    5.4886n  673.7671m -273.7671m 
  476.52525m  400.0000m    5.4887n  673.9085m -273.9085m 
  476.62525m  400.0000m    5.4889n  674.0499m -274.0499m 
  476.72525m  400.0000m    5.4890n  674.1913m -274.1913m 
  476.82525m  400.0000m    5.4891n  674.3327m -274.3327m 
  476.92525m  400.0000m    5.4892n  674.4742m -274.4742m 
  477.02525m  400.0000m    5.4894n  674.6156m -274.6156m 
  477.12525m  400.0000m    5.4895n  674.7570m -274.7570m 
  477.22525m  400.0000m    5.4897n  674.8984m -274.8984m 
  477.32525m  400.0000m    5.4898n  675.0399m -275.0398m 
  477.42525m  400.0000m    5.4899n  675.1813m -275.1813m 
  477.52525m  400.0000m    5.4901n  675.3227m -275.3227m 
  477.62525m  400.0000m    5.4902n  675.4641m -275.4641m 
  477.72525m  400.0000m    5.4904n  675.6055m -275.6055m 
  477.82525m  400.0000m    5.4905n  675.7470m -275.7470m 
  477.92525m  400.0000m    5.4907n  675.8884m -275.8884m 
  478.02525m  400.0000m    5.4908n  676.0298m -276.0298m 
  478.12525m  400.0000m    5.4910n  676.1712m -276.1712m 
  478.22525m  400.0000m    5.4911n  676.3126m -276.3126m 
  478.32525m  400.0000m    5.4913n  676.4541m -276.4541m 
  478.42525m  400.0000m    5.4915n  676.5955m -276.5955m 
  478.52525m  400.0000m    5.4916n  676.7369m -276.7369m 
  478.62525m  400.0000m    5.4918n  676.8783m -276.8783m 
  478.72525m  400.0000m    5.4919n  677.0198m -277.0197m 
  478.82525m  400.0000m    5.4921n  677.1612m -277.1612m 
  478.92525m  400.0000m    5.4923n  677.3026m -277.3026m 
  479.02525m  400.0000m    5.4925n  677.4440m -277.4440m 
  479.12525m  400.0000m    5.4926n  677.5854m -277.5854m 
  479.22525m  400.0000m    5.4928n  677.7269m -277.7269m 
  479.32525m  400.0000m    5.4930n  677.8683m -277.8683m 
  479.42525m  400.0000m    5.4932n  678.0097m -278.0097m 
  479.52525m  400.0000m    5.4933n  678.1511m -278.1511m 
  479.62525m  400.0000m    5.4935n  678.2925m -278.2925m 
  479.72525m  400.0000m    5.4937n  678.4340m -278.4340m 
  479.82525m  400.0000m    5.4939n  678.5754m -278.5754m 
  479.92525m  400.0000m    5.4941n  678.7168m -278.7168m 
  480.02525m  400.0000m    5.4943n  678.8582m -278.8582m 
  480.12525m  400.0000m    5.4945n  678.9997m -278.9996m 
  480.22525m  400.0000m    5.4947n  679.1411m -279.1411m 
  480.32525m  400.0000m    5.4949n  679.2825m -279.2825m 
  480.42525m  400.0000m    5.4951n  679.4239m -279.4239m 
  480.52525m  400.0000m    5.4953n  679.5653m -279.5653m 
  480.62525m  400.0000m    5.4955n  679.7068m -279.7068m 
  480.72525m  400.0000m    5.4957n  679.8482m -279.8482m 
  480.82525m  400.0000m    5.4959n  679.9896m -279.9896m 
  480.92525m  400.0000m    5.4961n  680.1310m -280.1310m 
  481.02525m  400.0000m    5.4963n  680.2724m -280.2724m 
  481.12525m  400.0000m    5.4965n  680.4139m -280.4139m 
  481.22525m  400.0000m    5.4967n  680.5553m -280.5553m 
  481.32525m  400.0000m    5.4969n  680.6967m -280.6967m 
  481.42525m  400.0000m    5.4971n  680.8381m -280.8381m 
  481.52525m  400.0000m    5.4974n  680.9795m -280.9795m 
  481.62525m  400.0000m    5.4976n  681.1210m -281.1210m 
  481.72525m  400.0000m    5.4978n  681.2624m -281.2624m 
  481.82525m  400.0000m    5.4980n  681.4038m -281.4038m 
  481.92525m  400.0000m    5.4983n  681.5452m -281.5452m 
  482.02525m  400.0000m    5.4985n  681.6867m -281.6867m 
  482.12525m  400.0000m    5.4987n  681.8281m -281.8281m 
  482.22525m  400.0000m    5.4990n  681.9695m -281.9695m 
  482.32525m  400.0000m    5.4992n  682.1109m -282.1109m 
  482.42525m  400.0000m    5.4994n  682.2523m -282.2523m 
  482.52525m  400.0000m    5.4997n  682.3938m -282.3938m 
  482.62525m  400.0000m    5.4999n  682.5352m -282.5352m 
  482.72525m  400.0000m    5.5001n  682.6766m -282.6766m 
  482.82525m  400.0000m    5.5004n  682.8180m -282.8180m 
  482.92525m  400.0000m    5.5006n  682.9594m -282.9594m 
  483.02525m  400.0000m    5.5009n  683.1009m -283.1009m 
  483.12525m  400.0000m    5.5011n  683.2423m -283.2423m 
  483.22525m  400.0000m    5.5014n  683.3837m -283.3837m 
  483.32525m  400.0000m    5.5016n  683.5251m -283.5251m 
  483.42525m  400.0000m    5.5019n  683.6666m -283.6666m 
  483.52525m  400.0000m    5.5021n  683.8080m -283.8080m 
  483.62525m  400.0000m    5.5024n  683.9494m -283.9494m 
  483.72525m  400.0000m    5.5027n  684.0908m -284.0908m 
  483.82525m  400.0000m    5.5029n  684.2322m -284.2322m 
  483.92525m  400.0000m    5.5032n  684.3737m -284.3737m 
  484.02525m  400.0000m    5.5034n  684.5151m -284.5151m 
  484.12525m  400.0000m    5.5037n  684.6565m -284.6565m 
  484.22525m  400.0000m    5.5040n  684.7979m -284.7979m 
  484.32525m  400.0000m    5.5043n  684.9393m -284.9393m 
  484.42525m  400.0000m    5.5045n  685.0808m -285.0808m 
  484.52525m  400.0000m    5.5048n  685.2222m -285.2222m 
  484.62525m  400.0000m    5.5051n  685.3636m -285.3636m 
  484.72525m  400.0000m    5.5054n  685.5050m -285.5050m 
  484.82525m  400.0000m    5.5056n  685.6465m -285.6465m 
  484.92525m  400.0000m    5.5059n  685.7879m -285.7879m 
  485.02525m  400.0000m    5.5062n  685.9293m -285.9293m 
  485.12525m  400.0000m    5.5065n  686.0707m -286.0707m 
  485.22525m  400.0000m    5.5068n  686.2121m -286.2121m 
  485.32525m  400.0000m    5.5071n  686.3536m -286.3536m 
  485.42525m  400.0000m    5.5074n  686.4950m -286.4950m 
  485.52525m  400.0000m    5.5077n  686.6364m -286.6364m 
  485.62525m  400.0000m    5.5080n  686.7778m -286.7778m 
  485.72525m  400.0000m    5.5083n  686.9192m -286.9192m 
  485.82525m  400.0000m    5.5086n  687.0607m -287.0607m 
  485.92525m  400.0000m    5.5089n  687.2021m -287.2021m 
  486.02525m  400.0000m    5.5092n  687.3435m -287.3435m 
  486.12525m  400.0000m    5.5095n  687.4849m -287.4849m 
  486.22525m  400.0000m    5.5098n  687.6264m -287.6263m 
  486.32525m  400.0000m    5.5101n  687.7678m -287.7678m 
  486.42525m  400.0000m    5.5104n  687.9092m -287.9092m 
  486.52525m  400.0000m    5.5107n  688.0506m -288.0506m 
  486.62525m  400.0000m    5.5110n  688.1920m -288.1920m 
  486.72525m  400.0000m    5.5113n  688.3335m -288.3335m 
  486.82525m  400.0000m    5.5116n  688.4749m -288.4749m 
  486.92525m  400.0000m    5.5120n  688.6163m -288.6163m 
  487.02525m  400.0000m    5.5123n  688.7577m -288.7577m 
  487.12525m  400.0000m    5.5126n  688.8991m -288.8991m 
  487.22525m  400.0000m    5.5129n  689.0406m -289.0406m 
  487.32525m  400.0000m    5.5133n  689.1820m -289.1820m 
  487.42525m  400.0000m    5.5136n  689.3234m -289.3234m 
  487.52525m  400.0000m    5.5139n  689.4648m -289.4648m 
  487.62525m  400.0000m    5.5142n  689.6063m -289.6062m 
  487.72525m  400.0000m    5.5146n  689.7477m -289.7477m 
  487.82525m  400.0000m    5.5149n  689.8891m -289.8891m 
  487.92525m  400.0000m    5.5153n  690.0305m -290.0305m 
  488.02525m  400.0000m    5.5156n  690.1719m -290.1719m 
  488.12525m  400.0000m    5.5159n  690.3134m -290.3134m 
  488.22525m  400.0000m    5.5163n  690.4548m -290.4548m 
  488.32525m  400.0000m    5.5166n  690.5962m -290.5962m 
  488.42525m  400.0000m    5.5170n  690.7376m -290.7376m 
  488.52525m  400.0000m    5.5173n  690.8790m -290.8790m 
  488.62525m  400.0000m    5.5177n  691.0205m -291.0205m 
  488.72525m  400.0000m    5.5180n  691.1619m -291.1619m 
  488.82525m  400.0000m    5.5184n  691.3033m -291.3033m 
  488.92525m  400.0000m    5.5187n  691.4447m -291.4447m 
  489.02525m  400.0000m    5.5191n  691.5862m -291.5861m 
  489.12525m  400.0000m    5.5195n  691.7276m -291.7276m 
  489.22525m  400.0000m    5.5198n  691.8690m -291.8690m 
  489.32525m  400.0000m    5.5202n  692.0104m -292.0104m 
  489.42525m  400.0000m    5.5205n  692.1518m -292.1518m 
  489.52525m  400.0000m    5.5209n  692.2933m -292.2933m 
  489.62525m  400.0000m    5.5213n  692.4347m -292.4347m 
  489.72525m  400.0000m    5.5216n  692.5761m -292.5761m 
  489.82525m  400.0000m    5.5220n  692.7175m -292.7175m 
  489.92525m  400.0000m    5.5224n  692.8589m -292.8589m 
  490.02525m  400.0000m    5.5228n  693.0004m -293.0004m 
  490.12525m  400.0000m    5.5231n  693.1418m -293.1418m 
  490.22525m  400.0000m    5.5235n  693.2832m -293.2832m 
  490.32525m  400.0000m    5.5239n  693.4246m -293.4246m 
  490.42525m  400.0000m    5.5243n  693.5660m -293.5660m 
  490.52525m  400.0000m    5.5247n  693.7075m -293.7075m 
  490.62525m  400.0000m    5.5251n  693.8489m -293.8489m 
  490.72525m  400.0000m    5.5255n  693.9903m -293.9903m 
  490.82525m  400.0000m    5.5258n  694.1317m -294.1317m 
  490.92525m  400.0000m    5.5262n  694.2732m -294.2732m 
  491.02525m  400.0000m    5.5266n  694.4146m -294.4146m 
  491.12525m  400.0000m    5.5270n  694.5560m -294.5560m 
  491.22525m  400.0000m    5.5274n  694.6974m -294.6974m 
  491.32525m  400.0000m    5.5278n  694.8388m -294.8388m 
  491.42525m  400.0000m    5.5282n  694.9803m -294.9803m 
  491.52525m  400.0000m    5.5286n  695.1217m -295.1217m 
  491.62525m  400.0000m    5.5290n  695.2631m -295.2631m 
  491.72525m  400.0000m    5.5294n  695.4045m -295.4045m 
  491.82525m  400.0000m    5.5298n  695.5459m -295.5459m 
  491.92525m  400.0000m    5.5303n  695.6874m -295.6874m 
  492.02525m  400.0000m    5.5307n  695.8288m -295.8288m 
  492.12525m  400.0000m    5.5311n  695.9702m -295.9702m 
  492.22525m  400.0000m    5.5315n  696.1116m -296.1116m 
  492.32525m  400.0000m    5.5319n  696.2531m -296.2531m 
  492.42525m  400.0000m    5.5323n  696.3945m -296.3945m 
  492.52525m  400.0000m    5.5328n  696.5359m -296.5359m 
  492.62525m  400.0000m    5.5332n  696.6773m -296.6773m 
  492.72525m  400.0000m    5.5336n  696.8187m -296.8187m 
  492.82525m  400.0000m    5.5340n  696.9602m -296.9602m 
  492.92525m  400.0000m    5.5345n  697.1016m -297.1016m 
  493.02525m  400.0000m    5.5349n  697.2430m -297.2430m 
  493.12525m  400.0000m    5.5353n  697.3844m -297.3844m 
  493.22525m  400.0000m    5.5358n  697.5258m -297.5258m 
  493.32525m  400.0000m    5.5362n  697.6673m -297.6673m 
  493.42525m  400.0000m    5.5366n  697.8087m -297.8087m 
  493.52525m  400.0000m    5.5371n  697.9501m -297.9501m 
  493.62525m  400.0000m    5.5375n  698.0915m -298.0915m 
  493.72525m  400.0000m    5.5380n  698.2330m -298.2330m 
  493.82525m  400.0000m    5.5384n  698.3744m -298.3744m 
  493.92525m  400.0000m    5.5388n  698.5158m -298.5158m 
  494.02525m  400.0000m    5.5393n  698.6572m -298.6572m 
  494.12525m  400.0000m    5.5397n  698.7986m -298.7986m 
  494.22525m  400.0000m    5.5402n  698.9401m -298.9401m 
  494.32525m  400.0000m    5.5406n  699.0815m -299.0815m 
  494.42525m  400.0000m    5.5411n  699.2229m -299.2229m 
  494.52525m  400.0000m    5.5416n  699.3643m -299.3643m 
  494.62525m  400.0000m    5.5420n  699.5057m -299.5057m 
  494.72525m  400.0000m    5.5425n  699.6472m -299.6472m 
  494.82525m  400.0000m    5.5429n  699.7886m -299.7886m 
  494.92525m  400.0000m    5.5434n  699.9300m -299.9300m 
y
 max_1= 424.1651m    at= 494.9253m
             from=-494.9747m    to= 494.9253m
 max_2= 424.2641m    at=-494.9747m
             from=-494.9747m    to= 494.9253m
 snm= 299.9300m
 ******  
 .title noise margin in hold operation

 ****** operating point information tnom=  25.000 temp=  25.000 ******
 ****** operating point status is all       simulation time is     0.     
    node    =voltage      node    =voltage      node    =voltage

 +0:bl      = 400.0000m 0:blb     = 400.0000m 0:gl      = 222.4390m
 +0:gr      = 222.4390m 0:q       = 222.4390m 0:qb      = 222.4390m
 +0:u       =   0.      0:v1      = 314.5762m 0:v2      = 314.5762m
 +0:vdd     = 400.0000m 0:wl      =   0.      0:x       = 360.6819m


 **** voltage sources

 subckt                                   
 element  0:vu       0:vvdd     0:vwl     
  volts      0.       400.0000m    0.     
  current    0.        -4.3595n   83.2504f
  power      0.         1.7438n    0.     

     total voltage source power dissipation=    1.7438n       watts



 **** voltage-controlled voltage sources


 subckt                                              
 element  0:eli      0:ev1      0:eri      0:ev2     
  volts    222.4390m  314.5762m  222.4390m  314.5762m
  current  949.9844a    0.       949.9844a    0.     





 **** mosfets


 subckt                                                                    
 element  0:mpr      0:mnr      0:mpl      0:mnl      0:mnpr     0:mnpl    
 model    0:pmos_sra 0:nmos_sra 0:pmos_sra 0:nmos_sra 0:nmos_sra 0:nmos_sra
 region   Subth      Subth      Subth      Subth      Cutoff     Cutoff    
  id        -2.1797n    2.1797n   -2.1797n    2.1797n  892.2243a  892.2243a
  ibs        0.         0.         0.         0.         0.         0.     
  ibd        0.         0.         0.         0.         0.         0.     
  vgs     -177.5610m  222.4390m -177.5610m  222.4390m -222.4390m -222.4390m
  vds     -177.5610m  222.4390m -177.5610m  222.4390m  177.5610m  177.5610m
  vbs      -39.3181m  360.6819m  -39.3181m  360.6819m  138.2430m  138.2430m
  vth     -337.2809m  409.2920m -337.2809m  409.2920m  409.5218m  409.5218m
  vdsat    -73.0241m   70.7144m  -73.0241m   70.7144m   70.6690m   70.6690m
  vod      159.7199m -186.8531m  159.7199m -186.8531m -631.9607m -631.9607m
  beta       1.6413m    2.1736m    1.6413m    2.1736m    2.1736m    2.1736m
  gam eff    0.         0.         0.         0.         0.         0.     
  gm        83.5855n   82.8608n   83.5855n   82.8608n  9.541e-20  9.541e-20
  gds        2.2851n    1.6770n    2.2851n    1.6770n  432.5470a  432.5470a
  gmb       25.1942f   33.4632f   25.1942f   33.4632f  1.096e-20  1.096e-20
  cdtot     10.2222a   10.2225a   10.2222a   10.2225a   10.2225a   10.2225a
  cgtot     20.5530a   20.4855a   20.5530a   20.4855a   20.4450a   20.4450a
  cstot     10.2942a   10.2500a   10.2942a   10.2500a   10.2225a   10.2225a
  cbtot      0.         0.         0.         0.         0.         0.     
  cgs       10.3318a   10.2631a   10.3318a   10.2631a   10.2225a   10.2225a
  cgd       10.2213a   10.2223a   10.2213a   10.2223a   10.2225a   10.2225a




          ***** job concluded
 ******  
 .title noise margin in hold operation

 ****** job statistics summary tnom=  25.000 temp=  25.000 ******

  ******  Circuit Statistics  ******
  # nodes       =      13 # elements   =      15
  # resistors   =       0 # capacitors =       2 # inductors   =       0
  # mutual_inds =       0 # vccs       =       0 # vcvs        =       4
  # cccs        =       0 # ccvs       =       0 # volt_srcs   =       3
  # curr_srcs   =       0 # diodes     =       0 # bjts        =       0
  # jfets       =       0 # mosfets    =       6 # U elements  =       0
  # T elements  =       0 # W elements =       0 # B elements  =       0
  # S elements  =       0 # P elements =       0 # va device   =       0
  # vector_srcs =       0 # N elements =       0


  ******  Runtime Statistics (seconds)  ******

  analysis           time    # points   tot. iter  conv.iter
  op point           0.01           1           9
  dc sweep           0.74        9900       29707
  readin             0.00
  errchk             0.00
  setup              0.00
  output             0.00


           peak memory used        406.95 megabytes
           total cpu time            0.81 seconds
           total elapsed time        0.82 seconds
           job started at     21:28:02 03/20/2025
           job ended   at     21:28:06 03/20/2025
           job total runtime         3.66 seconds


 lic: Release hspice token(s) 
 lic: total license checkout elapse time:        0.21(s)
