 ****** HSPICE -- Q-2020.03-SP2-2 linux64 (Nov  1 2020) ******                  
  Copyright (c) 1986 - 2025 by Synopsys, Inc. All Rights Reserved.              
  This software and the associated documentation are proprietary
  to Synopsys, Inc. This software may only be used in accordance
  with the terms and conditions of a written license agreement with
  Synopsys, Inc. All other use, reproduction, or distribution of
  this software is strictly prohibited.
  Input File: SRAM_RSNM_SS.sp                                                   
  Command line options: /RAID2/cad/synopsys/hspice/2020.03-sp2-2/hspice/linux64/hspice -i SRAM_RSNM_SS.sp -o SRAM_RSNM_SS.lis
  Start time: Sun Mar 23 13:54:00 2025
 lic:  
 lic: FLEXlm: SDK_12.6 
 lic: USER:   es25MCS042           HOSTNAME: ee28 
 lic: HOSTID: "d85ed3efc19a"       PID:      139513 
 lic: Using FLEXlm license file: 
 lic: 26585@lshc 
 lic: Checkout 1 hspice 
 lic: License/Maintenance for hspice will expire on 14-may-2025/2024.09 
 lic: 180(in_use)/1100(total) FLOATING license(s) on SERVER 26585@lshc 
 lic:   
  
      
             
 Warning:'Floating bulk' occurs 1 times
 Summary of floating bulk:
 -----------------------
 |Node      |Device    |
 |----------+----------|
 |x         |mpr       |
 -----------------------
              
 *****************************************************************
 ******  option summary
 ******
 runlvl  = 3         bypass  = 2.0000    
 ******
 .title noise margin in read operation

 ****** dc transfer curves tnom=  25.000 temp=  25.000 ******
x

 volt         voltage    voltage    voltage    voltage   
             q          qb         gl         gr         
 -494.97475m  101.0308m  700.0000m   -6.5845n  801.0308m 
 -494.87475m  101.0427m  700.0000m  141.4147u  800.9013m 
 -494.77475m  101.0545m  700.0000m  282.8361u  800.7717m 
 -494.67475m  101.0664m  700.0000m  424.2574u  800.6421m 
 -494.57475m  101.0782m  700.0000m  565.6787u  800.5125m 
 -494.47475m  101.0901m  700.0000m  707.1001u  800.3830m 
 -494.37475m  101.1020m  700.0000m  848.5214u  800.2534m 
 -494.27475m  101.1138m  700.0000m  989.9427u  800.1239m 
 -494.17475m  101.1257m  700.0000m    1.1314m  799.9944m 
 -494.07475m  101.1376m  700.0000m    1.2728m  799.8648m 
 -493.97475m  101.1495m  700.0000m    1.4142m  799.7353m 
 -493.87475m  101.1615m  700.0000m    1.5556m  799.6058m 
 -493.77475m  101.1734m  700.0000m    1.6970m  799.4763m 
 -493.67475m  101.1853m  700.0000m    1.8385m  799.3468m 
 -493.57475m  101.1973m  700.0000m    1.9799m  799.2174m 
 -493.47475m  101.2092m  700.0000m    2.1213m  799.0879m 
 -493.37475m  101.2212m  700.0000m    2.2627m  798.9584m 
 -493.27475m  101.2331m  700.0000m    2.4042m  798.8290m 
 -493.17475m  101.2451m  700.0000m    2.5456m  798.6995m 
 -493.07475m  101.2571m  700.0000m    2.6870m  798.5701m 
 -492.97475m  101.2691m  700.0000m    2.8284m  798.4406m 
 -492.87475m  101.2811m  700.0000m    2.9698m  798.3112m 
 -492.77475m  101.2931m  700.0000m    3.1113m  798.1818m 
 -492.67475m  101.3051m  700.0000m    3.2527m  798.0524m 
 -492.57475m  101.3171m  700.0000m    3.3941m  797.9230m 
 -492.47475m  101.3291m  700.0000m    3.5355m  797.7936m 
 -492.37475m  101.3412m  700.0000m    3.6769m  797.6642m 
 -492.27475m  101.3532m  700.0000m    3.8184m  797.5348m 
 -492.17475m  101.3653m  700.0000m    3.9598m  797.4055m 
 -492.07475m  101.3773m  700.0000m    4.1012m  797.2761m 
 -491.97475m  101.3894m  700.0000m    4.2426m  797.1468m 
 -491.87475m  101.4015m  700.0000m    4.3841m  797.0174m 
 -491.77475m  101.4136m  700.0000m    4.5255m  796.8881m 
 -491.67475m  101.4257m  700.0000m    4.6669m  796.7588m 
 -491.57475m  101.4378m  700.0000m    4.8083m  796.6295m 
 -491.47475m  101.4499m  700.0000m    4.9497m  796.5002m 
 -491.37475m  101.4620m  700.0000m    5.0912m  796.3709m 
 -491.27475m  101.4742m  700.0000m    5.2326m  796.2416m 
 -491.17475m  101.4863m  700.0000m    5.3740m  796.1123m 
 -491.07475m  101.4984m  700.0000m    5.5154m  795.9830m 
 -490.97475m  101.5106m  700.0000m    5.6568m  795.8537m 
 -490.87475m  101.5228m  700.0000m    5.7983m  795.7245m 
 -490.77475m  101.5349m  700.0000m    5.9397m  795.5952m 
 -490.67475m  101.5471m  700.0000m    6.0811m  795.4660m 
 -490.57475m  101.5593m  700.0000m    6.2225m  795.3368m 
 -490.47475m  101.5715m  700.0000m    6.3640m  795.2075m 
 -490.37475m  101.5837m  700.0000m    6.5054m  795.0783m 
 -490.27475m  101.5959m  700.0000m    6.6468m  794.9491m 
 -490.17475m  101.6081m  700.0000m    6.7882m  794.8199m 
 -490.07475m  101.6204m  700.0000m    6.9296m  794.6907m 
 -489.97475m  101.6326m  700.0000m    7.0711m  794.5615m 
 -489.87475m  101.6449m  700.0000m    7.2125m  794.4324m 
 -489.77475m  101.6571m  700.0000m    7.3539m  794.3032m 
 -489.67475m  101.6694m  700.0000m    7.4953m  794.1740m 
 -489.57475m  101.6817m  700.0000m    7.6367m  794.0449m 
 -489.47475m  101.6939m  700.0000m    7.7782m  793.9158m 
 -489.37475m  101.7062m  700.0000m    7.9196m  793.7866m 
 -489.27475m  101.7185m  700.0000m    8.0610m  793.6575m 
 -489.17475m  101.7308m  700.0000m    8.2024m  793.5284m 
 -489.07475m  101.7431m  700.0000m    8.3439m  793.3993m 
 -488.97475m  101.7555m  700.0000m    8.4853m  793.2702m 
 -488.87475m  101.7678m  700.0000m    8.6267m  793.1411m 
 -488.77475m  101.7801m  700.0000m    8.7681m  793.0120m 
 -488.67475m  101.7925m  700.0000m    8.9095m  792.8830m 
 -488.57475m  101.8049m  700.0000m    9.0510m  792.7539m 
 -488.47475m  101.8172m  700.0000m    9.1924m  792.6248m 
 -488.37475m  101.8296m  700.0000m    9.3338m  792.4958m 
 -488.27475m  101.8420m  700.0000m    9.4752m  792.3668m 
 -488.17475m  101.8544m  700.0000m    9.6166m  792.2377m 
 -488.07475m  101.8668m  700.0000m    9.7581m  792.1087m 
 -487.97475m  101.8792m  700.0000m    9.8995m  791.9797m 
 -487.87475m  101.8916m  700.0000m   10.0409m  791.8507m 
 -487.77475m  101.9040m  700.0000m   10.1823m  791.7217m 
 -487.67475m  101.9165m  700.0000m   10.3238m  791.5927m 
 -487.57475m  101.9289m  700.0000m   10.4652m  791.4637m 
 -487.47475m  101.9414m  700.0000m   10.6066m  791.3348m 
 -487.37475m  101.9538m  700.0000m   10.7480m  791.2058m 
 -487.27475m  101.9663m  700.0000m   10.8894m  791.0769m 
 -487.17475m  101.9788m  700.0000m   11.0309m  790.9479m 
 -487.07475m  101.9913m  700.0000m   11.1723m  790.8190m 
 -486.97475m  102.0038m  700.0000m   11.3137m  790.6901m 
 -486.87475m  102.0163m  700.0000m   11.4551m  790.5611m 
 -486.77475m  102.0288m  700.0000m   11.5965m  790.4322m 
 -486.67475m  102.0413m  700.0000m   11.7380m  790.3033m 
 -486.57475m  102.0538m  700.0000m   11.8794m  790.1744m 
 -486.47475m  102.0664m  700.0000m   12.0208m  790.0456m 
 -486.37475m  102.0789m  700.0000m   12.1622m  789.9167m 
 -486.27475m  102.0915m  700.0000m   12.3036m  789.7878m 
 -486.17475m  102.1040m  700.0000m   12.4451m  789.6590m 
 -486.07475m  102.1166m  700.0000m   12.5865m  789.5301m 
 -485.97475m  102.1292m  700.0000m   12.7279m  789.4013m 
 -485.87475m  102.1418m  700.0000m   12.8693m  789.2725m 
 -485.77475m  102.1544m  700.0000m   13.0108m  789.1436m 
 -485.67475m  102.1670m  700.0000m   13.1522m  789.0148m 
 -485.57475m  102.1796m  700.0000m   13.2936m  788.8860m 
 -485.47475m  102.1923m  700.0000m   13.4350m  788.7572m 
 -485.37475m  102.2049m  700.0000m   13.5764m  788.6284m 
 -485.27475m  102.2175m  700.0000m   13.7179m  788.4997m 
 -485.17475m  102.2302m  700.0000m   13.8593m  788.3709m 
 -485.07475m  102.2429m  700.0000m   14.0007m  788.2421m 
 -484.97475m  102.2555m  700.0000m   14.1421m  788.1134m 
 -484.87475m  102.2682m  700.0000m   14.2835m  787.9847m 
 -484.77475m  102.2809m  700.0000m   14.4250m  787.8559m 
 -484.67475m  102.2936m  700.0000m   14.5664m  787.7272m 
 -484.57475m  102.3063m  700.0000m   14.7078m  787.5985m 
 -484.47475m  102.3190m  700.0000m   14.8492m  787.4698m 
 -484.37475m  102.3317m  700.0000m   14.9907m  787.3411m 
 -484.27475m  102.3445m  700.0000m   15.1321m  787.2124m 
 -484.17475m  102.3572m  700.0000m   15.2735m  787.0837m 
 -484.07475m  102.3700m  700.0000m   15.4149m  786.9550m 
 -483.97475m  102.3827m  700.0000m   15.5563m  786.8264m 
 -483.87475m  102.3955m  700.0000m   15.6978m  786.6977m 
 -483.77475m  102.4083m  700.0000m   15.8392m  786.5691m 
 -483.67475m  102.4211m  700.0000m   15.9806m  786.4405m 
 -483.57475m  102.4339m  700.0000m   16.1220m  786.3118m 
 -483.47475m  102.4467m  700.0000m   16.2634m  786.1832m 
 -483.37475m  102.4595m  700.0000m   16.4049m  786.0546m 
 -483.27475m  102.4723m  700.0000m   16.5463m  785.9260m 
 -483.17475m  102.4851m  700.0000m   16.6877m  785.7974m 
 -483.07475m  102.4980m  700.0000m   16.8291m  785.6688m 
 -482.97475m  102.5108m  700.0000m   16.9706m  785.5403m 
 -482.87475m  102.5237m  700.0000m   17.1120m  785.4117m 
 -482.77475m  102.5366m  700.0000m   17.2534m  785.2831m 
 -482.67475m  102.5494m  700.0000m   17.3948m  785.1546m 
 -482.57475m  102.5623m  700.0000m   17.5362m  785.0261m 
 -482.47475m  102.5752m  700.0000m   17.6777m  784.8975m 
 -482.37475m  102.5881m  700.0000m   17.8191m  784.7690m 
 -482.27475m  102.6010m  700.0000m   17.9605m  784.6405m 
 -482.17475m  102.6140m  700.0000m   18.1019m  784.5120m 
 -482.07475m  102.6269m  700.0000m   18.2433m  784.3835m 
 -481.97475m  102.6398m  700.0000m   18.3848m  784.2550m 
 -481.87475m  102.6528m  700.0000m   18.5262m  784.1266m 
 -481.77475m  102.6657m  700.0000m   18.6676m  783.9981m 
 -481.67475m  102.6787m  700.0000m   18.8090m  783.8697m 
 -481.57475m  102.6917m  700.0000m   18.9505m  783.7412m 
 -481.47475m  102.7047m  700.0000m   19.0919m  783.6128m 
 -481.37475m  102.7177m  700.0000m   19.2333m  783.4843m 
 -481.27475m  102.7307m  700.0000m   19.3747m  783.3559m 
 -481.17475m  102.7437m  700.0000m   19.5161m  783.2275m 
 -481.07475m  102.7567m  700.0000m   19.6576m  783.0991m 
 -480.97475m  102.7697m  700.0000m   19.7990m  782.9707m 
 -480.87475m  102.7828m  700.0000m   19.9404m  782.8424m 
 -480.77475m  102.7958m  700.0000m   20.0818m  782.7140m 
 -480.67475m  102.8089m  700.0000m   20.2232m  782.5856m 
 -480.57475m  102.8219m  700.0000m   20.3647m  782.4573m 
 -480.47475m  102.8350m  700.0000m   20.5061m  782.3289m 
 -480.37475m  102.8481m  700.0000m   20.6475m  782.2006m 
 -480.27475m  102.8612m  700.0000m   20.7889m  782.0723m 
 -480.17475m  102.8743m  700.0000m   20.9303m  781.9439m 
 -480.07475m  102.8874m  700.0000m   21.0718m  781.8156m 
 -479.97475m  102.9005m  700.0000m   21.2132m  781.6873m 
 -479.87475m  102.9137m  700.0000m   21.3546m  781.5590m 
 -479.77475m  102.9268m  700.0000m   21.4960m  781.4308m 
 -479.67475m  102.9400m  700.0000m   21.6375m  781.3025m 
 -479.57475m  102.9531m  700.0000m   21.7789m  781.1742m 
 -479.47475m  102.9663m  700.0000m   21.9203m  781.0460m 
 -479.37475m  102.9795m  700.0000m   22.0617m  780.9177m 
 -479.27475m  102.9927m  700.0000m   22.2031m  780.7895m 
 -479.17475m  103.0059m  700.0000m   22.3446m  780.6613m 
 -479.07475m  103.0191m  700.0000m   22.4860m  780.5331m 
 -478.97475m  103.0323m  700.0000m   22.6274m  780.4049m 
 -478.87475m  103.0455m  700.0000m   22.7688m  780.2767m 
 -478.77475m  103.0587m  700.0000m   22.9102m  780.1485m 
 -478.67475m  103.0720m  700.0000m   23.0517m  780.0203m 
 -478.57475m  103.0852m  700.0000m   23.1931m  779.8921m 
 -478.47475m  103.0985m  700.0000m   23.3345m  779.7640m 
 -478.37475m  103.1118m  700.0000m   23.4759m  779.6358m 
 -478.27475m  103.1250m  700.0000m   23.6174m  779.5077m 
 -478.17475m  103.1383m  700.0000m   23.7588m  779.3795m 
 -478.07475m  103.1516m  700.0000m   23.9002m  779.2514m 
 -477.97475m  103.1649m  700.0000m   24.0416m  779.1233m 
 -477.87475m  103.1783m  700.0000m   24.1830m  778.9952m 
 -477.77475m  103.1916m  700.0000m   24.3245m  778.8671m 
 -477.67475m  103.2049m  700.0000m   24.4659m  778.7390m 
 -477.57475m  103.2183m  700.0000m   24.6073m  778.6110m 
 -477.47475m  103.2316m  700.0000m   24.7487m  778.4829m 
 -477.37475m  103.2450m  700.0000m   24.8901m  778.3548m 
 -477.27475m  103.2584m  700.0000m   25.0316m  778.2268m 
 -477.17475m  103.2718m  700.0000m   25.1730m  778.0988m 
 -477.07475m  103.2852m  700.0000m   25.3144m  777.9707m 
 -476.97475m  103.2986m  700.0000m   25.4558m  777.8427m 
 -476.87475m  103.3120m  700.0000m   25.5973m  777.7147m 
 -476.77475m  103.3254m  700.0000m   25.7387m  777.5867m 
 -476.67475m  103.3388m  700.0000m   25.8801m  777.4587m 
 -476.57475m  103.3523m  700.0000m   26.0215m  777.3307m 
 -476.47475m  103.3657m  700.0000m   26.1629m  777.2028m 
 -476.37475m  103.3792m  700.0000m   26.3044m  777.0748m 
 -476.27475m  103.3926m  700.0000m   26.4458m  776.9469m 
 -476.17475m  103.4061m  700.0000m   26.5872m  776.8189m 
 -476.07475m  103.4196m  700.0000m   26.7286m  776.6910m 
 -475.97475m  103.4331m  700.0000m   26.8700m  776.5631m 
 -475.87475m  103.4466m  700.0000m   27.0115m  776.4351m 
 -475.77475m  103.4601m  700.0000m   27.1529m  776.3072m 
 -475.67475m  103.4737m  700.0000m   27.2943m  776.1793m 
 -475.57475m  103.4872m  700.0000m   27.4357m  776.0515m 
 -475.47475m  103.5007m  700.0000m   27.5771m  775.9236m 
 -475.37475m  103.5143m  700.0000m   27.7186m  775.7957m 
 -475.27475m  103.5279m  700.0000m   27.8600m  775.6679m 
 -475.17475m  103.5414m  700.0000m   28.0014m  775.5400m 
 -475.07475m  103.5550m  700.0000m   28.1428m  775.4122m 
 -474.97475m  103.5686m  700.0000m   28.2843m  775.2844m 
 -474.87475m  103.5822m  700.0000m   28.4257m  775.1565m 
 -474.77475m  103.5958m  700.0000m   28.5671m  775.0287m 
 -474.67475m  103.6095m  700.0000m   28.7085m  774.9009m 
 -474.57475m  103.6231m  700.0000m   28.8499m  774.7731m 
 -474.47475m  103.6367m  700.0000m   28.9914m  774.6454m 
 -474.37475m  103.6504m  700.0000m   29.1328m  774.5176m 
 -474.27475m  103.6641m  700.0000m   29.2742m  774.3898m 
 -474.17475m  103.6777m  700.0000m   29.4156m  774.2621m 
 -474.07475m  103.6914m  700.0000m   29.5570m  774.1343m 
 -473.97475m  103.7051m  700.0000m   29.6985m  774.0066m 
 -473.87475m  103.7188m  700.0000m   29.8399m  773.8789m 
 -473.77475m  103.7325m  700.0000m   29.9813m  773.7512m 
 -473.67475m  103.7462m  700.0000m   30.1227m  773.6235m 
 -473.57475m  103.7600m  700.0000m   30.2642m  773.4958m 
 -473.47475m  103.7737m  700.0000m   30.4056m  773.3681m 
 -473.37475m  103.7875m  700.0000m   30.5470m  773.2404m 
 -473.27475m  103.8012m  700.0000m   30.6884m  773.1128m 
 -473.17475m  103.8150m  700.0000m   30.8298m  772.9851m 
 -473.07475m  103.8288m  700.0000m   30.9713m  772.8575m 
 -472.97475m  103.8425m  700.0000m   31.1127m  772.7298m 
 -472.87475m  103.8563m  700.0000m   31.2541m  772.6022m 
 -472.77475m  103.8702m  700.0000m   31.3955m  772.4746m 
 -472.67475m  103.8840m  700.0000m   31.5369m  772.3470m 
 -472.57475m  103.8978m  700.0000m   31.6784m  772.2194m 
 -472.47475m  103.9116m  700.0000m   31.8198m  772.0918m 
 -472.37475m  103.9255m  700.0000m   31.9612m  771.9643m 
 -472.27475m  103.9393m  700.0000m   32.1026m  771.8367m 
 -472.17475m  103.9532m  700.0000m   32.2441m  771.7091m 
 -472.07475m  103.9671m  700.0000m   32.3855m  771.5816m 
 -471.97475m  103.9810m  700.0000m   32.5269m  771.4541m 
 -471.87475m  103.9949m  700.0000m   32.6683m  771.3265m 
 -471.77475m  104.0088m  700.0000m   32.8097m  771.1990m 
 -471.67475m  104.0227m  700.0000m   32.9512m  771.0715m 
 -471.57475m  104.0366m  700.0000m   33.0926m  770.9440m 
 -471.47475m  104.0506m  700.0000m   33.2340m  770.8165m 
 -471.37475m  104.0645m  700.0000m   33.3754m  770.6891m 
 -471.27475m  104.0785m  700.0000m   33.5168m  770.5616m 
 -471.17475m  104.0924m  700.0000m   33.6583m  770.4342m 
 -471.07475m  104.1064m  700.0000m   33.7997m  770.3067m 
 -470.97475m  104.1204m  700.0000m   33.9411m  770.1793m 
 -470.87475m  104.1344m  700.0000m   34.0825m  770.0518m 
 -470.77475m  104.1484m  700.0000m   34.2239m  769.9244m 
 -470.67475m  104.1624m  700.0000m   34.3654m  769.7970m 
 -470.57475m  104.1764m  700.0000m   34.5068m  769.6696m 
 -470.47475m  104.1905m  700.0000m   34.6482m  769.5423m 
 -470.37475m  104.2045m  700.0000m   34.7896m  769.4149m 
 -470.27475m  104.2186m  700.0000m   34.9311m  769.2875m 
 -470.17475m  104.2327m  700.0000m   35.0725m  769.1602m 
 -470.07475m  104.2467m  700.0000m   35.2139m  769.0328m 
 -469.97475m  104.2608m  700.0000m   35.3553m  768.9055m 
 -469.87475m  104.2749m  700.0000m   35.4967m  768.7782m 
 -469.77475m  104.2890m  700.0000m   35.6382m  768.6508m 
 -469.67475m  104.3031m  700.0000m   35.7796m  768.5235m 
 -469.57475m  104.3173m  700.0000m   35.9210m  768.3962m 
 -469.47475m  104.3314m  700.0000m   36.0624m  768.2690m 
 -469.37475m  104.3456m  700.0000m   36.2038m  768.1417m 
 -469.27475m  104.3597m  700.0000m   36.3453m  768.0144m 
 -469.17475m  104.3739m  700.0000m   36.4867m  767.8872m 
 -469.07475m  104.3881m  700.0000m   36.6281m  767.7599m 
 -468.97475m  104.4022m  700.0000m   36.7695m  767.6327m 
 -468.87475m  104.4164m  700.0000m   36.9110m  767.5055m 
 -468.77475m  104.4307m  700.0000m   37.0524m  767.3783m 
 -468.67475m  104.4449m  700.0000m   37.1938m  767.2511m 
 -468.57475m  104.4591m  700.0000m   37.3352m  767.1239m 
 -468.47475m  104.4733m  700.0000m   37.4766m  766.9967m 
 -468.37475m  104.4876m  700.0000m   37.6181m  766.8695m 
 -468.27475m  104.5018m  700.0000m   37.7595m  766.7423m 
 -468.17475m  104.5161m  700.0000m   37.9009m  766.6152m 
 -468.07475m  104.5304m  700.0000m   38.0423m  766.4881m 
 -467.97475m  104.5447m  700.0000m   38.1837m  766.3609m 
 -467.87475m  104.5590m  700.0000m   38.3252m  766.2338m 
 -467.77475m  104.5733m  700.0000m   38.4666m  766.1067m 
 -467.67475m  104.5876m  700.0000m   38.6080m  765.9796m 
 -467.57475m  104.6020m  700.0000m   38.7494m  765.8525m 
 -467.47475m  104.6163m  700.0000m   38.8908m  765.7254m 
 -467.37475m  104.6306m  700.0000m   39.0323m  765.5984m 
 -467.27475m  104.6450m  700.0000m   39.1737m  765.4713m 
 -467.17475m  104.6594m  700.0000m   39.3151m  765.3442m 
 -467.07475m  104.6738m  700.0000m   39.4565m  765.2172m 
 -466.97475m  104.6882m  700.0000m   39.5980m  765.0902m 
 -466.87475m  104.7026m  700.0000m   39.7394m  764.9632m 
 -466.77475m  104.7170m  700.0000m   39.8808m  764.8362m 
 -466.67475m  104.7314m  700.0000m   40.0222m  764.7092m 
 -466.57475m  104.7458m  700.0000m   40.1636m  764.5822m 
 -466.47475m  104.7603m  700.0000m   40.3051m  764.4552m 
 -466.37475m  104.7747m  700.0000m   40.4465m  764.3282m 
 -466.27475m  104.7892m  700.0000m   40.5879m  764.2013m 
 -466.17475m  104.8037m  700.0000m   40.7293m  764.0743m 
 -466.07475m  104.8182m  700.0000m   40.8707m  763.9474m 
 -465.97475m  104.8327m  700.0000m   41.0122m  763.8205m 
 -465.87475m  104.8472m  700.0000m   41.1536m  763.6936m 
 -465.77475m  104.8617m  700.0000m   41.2950m  763.5666m 
 -465.67475m  104.8762m  700.0000m   41.4364m  763.4398m 
 -465.57475m  104.8908m  700.0000m   41.5779m  763.3129m 
 -465.47475m  104.9053m  700.0000m   41.7193m  763.1860m 
 -465.37475m  104.9199m  700.0000m   41.8607m  763.0591m 
 -465.27475m  104.9344m  700.0000m   42.0021m  762.9323m 
 -465.17475m  104.9490m  700.0000m   42.1435m  762.8055m 
 -465.07475m  104.9636m  700.0000m   42.2850m  762.6786m 
 -464.97475m  104.9782m  700.0000m   42.4264m  762.5518m 
 -464.87475m  104.9928m  700.0000m   42.5678m  762.4250m 
 -464.77475m  105.0074m  700.0000m   42.7092m  762.2982m 
 -464.67475m  105.0221m  700.0000m   42.8506m  762.1714m 
 -464.57475m  105.0367m  700.0000m   42.9921m  762.0446m 
 -464.47475m  105.0514m  700.0000m   43.1335m  761.9179m 
 -464.37475m  105.0660m  700.0000m   43.2749m  761.7911m 
 -464.27475m  105.0807m  700.0000m   43.4163m  761.6644m 
 -464.17475m  105.0954m  700.0000m   43.5577m  761.5376m 
 -464.07475m  105.1101m  700.0000m   43.6992m  761.4109m 
 -463.97475m  105.1248m  700.0000m   43.8406m  761.2842m 
 -463.87475m  105.1395m  700.0000m   43.9820m  761.1575m 
 -463.77475m  105.1543m  700.0000m   44.1234m  761.0308m 
 -463.67475m  105.1690m  700.0000m   44.2649m  760.9041m 
 -463.57475m  105.1837m  700.0000m   44.4063m  760.7774m 
 -463.47475m  105.1985m  700.0000m   44.5477m  760.6508m 
 -463.37475m  105.2133m  700.0000m   44.6891m  760.5241m 
 -463.27475m  105.2281m  700.0000m   44.8305m  760.3975m 
 -463.17475m  105.2429m  700.0000m   44.9720m  760.2709m 
 -463.07475m  105.2577m  700.0000m   45.1134m  760.1442m 
 -462.97475m  105.2725m  700.0000m   45.2548m  760.0176m 
 -462.87475m  105.2873m  700.0000m   45.3962m  759.8910m 
 -462.77475m  105.3021m  700.0000m   45.5376m  759.7645m 
 -462.67475m  105.3170m  700.0000m   45.6791m  759.6379m 
 -462.57475m  105.3318m  700.0000m   45.8205m  759.5113m 
 -462.47475m  105.3467m  700.0000m   45.9619m  759.3848m 
 -462.37475m  105.3616m  700.0000m   46.1033m  759.2582m 
 -462.27475m  105.3765m  700.0000m   46.2448m  759.1317m 
 -462.17475m  105.3914m  700.0000m   46.3862m  759.0052m 
 -462.07475m  105.4063m  700.0000m   46.5276m  758.8787m 
 -461.97475m  105.4212m  700.0000m   46.6690m  758.7522m 
 -461.87475m  105.4361m  700.0000m   46.8104m  758.6257m 
 -461.77475m  105.4511m  700.0000m   46.9519m  758.4992m 
 -461.67475m  105.4660m  700.0000m   47.0933m  758.3727m 
 -461.57475m  105.4810m  700.0000m   47.2347m  758.2463m 
 -461.47475m  105.4960m  700.0000m   47.3761m  758.1198m 
 -461.37475m  105.5110m  700.0000m   47.5175m  757.9934m 
 -461.27475m  105.5260m  700.0000m   47.6590m  757.8670m 
 -461.17475m  105.5410m  700.0000m   47.8004m  757.7406m 
 -461.07475m  105.5560m  700.0000m   47.9418m  757.6142m 
 -460.97475m  105.5710m  700.0000m   48.0832m  757.4878m 
 -460.87475m  105.5861m  700.0000m   48.2246m  757.3614m 
 -460.77475m  105.6011m  700.0000m   48.3661m  757.2350m 
 -460.67475m  105.6162m  700.0000m   48.5075m  757.1087m 
 -460.57475m  105.6313m  700.0000m   48.6489m  756.9823m 
 -460.47475m  105.6463m  700.0000m   48.7903m  756.8560m 
 -460.37475m  105.6614m  700.0000m   48.9318m  756.7297m 
 -460.27475m  105.6765m  700.0000m   49.0732m  756.6033m 
 -460.17475m  105.6917m  700.0000m   49.2146m  756.4770m 
 -460.07475m  105.7068m  700.0000m   49.3560m  756.3507m 
 -459.97475m  105.7219m  700.0000m   49.4974m  756.2245m 
 -459.87475m  105.7371m  700.0000m   49.6389m  756.0982m 
 -459.77475m  105.7522m  700.0000m   49.7803m  755.9719m 
 -459.67475m  105.7674m  700.0000m   49.9217m  755.8457m 
 -459.57475m  105.7826m  700.0000m   50.0631m  755.7194m 
 -459.47475m  105.7978m  700.0000m   50.2045m  755.5932m 
 -459.37475m  105.8130m  700.0000m   50.3460m  755.4670m 
 -459.27475m  105.8282m  700.0000m   50.4874m  755.3408m 
 -459.17475m  105.8435m  700.0000m   50.6288m  755.2146m 
 -459.07475m  105.8587m  700.0000m   50.7702m  755.0884m 
 -458.97475m  105.8739m  700.0000m   50.9117m  754.9623m 
 -458.87475m  105.8892m  700.0000m   51.0531m  754.8361m 
 -458.77475m  105.9045m  700.0000m   51.1945m  754.7099m 
 -458.67475m  105.9198m  700.0000m   51.3359m  754.5838m 
 -458.57475m  105.9351m  700.0000m   51.4773m  754.4577m 
 -458.47475m  105.9504m  700.0000m   51.6188m  754.3316m 
 -458.37475m  105.9657m  700.0000m   51.7602m  754.2055m 
 -458.27475m  105.9810m  700.0000m   51.9016m  754.0794m 
 -458.17475m  105.9964m  700.0000m   52.0430m  753.9533m 
 -458.07475m  106.0117m  700.0000m   52.1844m  753.8272m 
 -457.97475m  106.0271m  700.0000m   52.3259m  753.7012m 
 -457.87475m  106.0424m  700.0000m   52.4673m  753.5751m 
 -457.77475m  106.0578m  700.0000m   52.6087m  753.4491m 
 -457.67475m  106.0732m  700.0000m   52.7501m  753.3231m 
 -457.57475m  106.0886m  700.0000m   52.8915m  753.1970m 
 -457.47475m  106.1040m  700.0000m   53.0330m  753.0710m 
 -457.37475m  106.1195m  700.0000m   53.1744m  752.9450m 
 -457.27475m  106.1349m  700.0000m   53.3158m  752.8191m 
 -457.17475m  106.1504m  700.0000m   53.4572m  752.6931m 
 -457.07475m  106.1658m  700.0000m   53.5987m  752.5671m 
 -456.97475m  106.1813m  700.0000m   53.7401m  752.4412m 
 -456.87475m  106.1968m  700.0000m   53.8815m  752.3153m 
 -456.77475m  106.2123m  700.0000m   54.0229m  752.1893m 
 -456.67475m  106.2278m  700.0000m   54.1643m  752.0634m 
 -456.57475m  106.2433m  700.0000m   54.3058m  751.9375m 
 -456.47475m  106.2589m  700.0000m   54.4472m  751.8116m 
 -456.37475m  106.2744m  700.0000m   54.5886m  751.6858m 
 -456.27475m  106.2899m  700.0000m   54.7300m  751.5599m 
 -456.17475m  106.3055m  700.0000m   54.8714m  751.4340m 
 -456.07475m  106.3211m  700.0000m   55.0129m  751.3082m 
 -455.97475m  106.3367m  700.0000m   55.1543m  751.1824m 
 -455.87475m  106.3523m  700.0000m   55.2957m  751.0565m 
 -455.77475m  106.3679m  700.0000m   55.4371m  750.9307m 
 -455.67475m  106.3835m  700.0000m   55.5785m  750.8049m 
 -455.57475m  106.3991m  700.0000m   55.7200m  750.6791m 
 -455.47475m  106.4148m  700.0000m   55.8614m  750.5534m 
 -455.37475m  106.4305m  700.0000m   56.0028m  750.4276m 
 -455.27475m  106.4461m  700.0000m   56.1442m  750.3018m 
 -455.17475m  106.4618m  700.0000m   56.2857m  750.1761m 
 -455.07475m  106.4775m  700.0000m   56.4271m  750.0504m 
 -454.97475m  106.4932m  700.0000m   56.5685m  749.9247m 
 -454.87475m  106.5089m  700.0000m   56.7099m  749.7989m 
 -454.77475m  106.5246m  700.0000m   56.8513m  749.6733m 
 -454.67475m  106.5404m  700.0000m   56.9928m  749.5476m 
 -454.57475m  106.5561m  700.0000m   57.1342m  749.4219m 
 -454.47475m  106.5719m  700.0000m   57.2756m  749.2962m 
 -454.37475m  106.5877m  700.0000m   57.4170m  749.1706m 
 -454.27475m  106.6034m  700.0000m   57.5584m  749.0449m 
 -454.17475m  106.6192m  700.0000m   57.6999m  748.9193m 
 -454.07475m  106.6350m  700.0000m   57.8413m  748.7937m 
 -453.97475m  106.6509m  700.0000m   57.9827m  748.6681m 
 -453.87475m  106.6667m  700.0000m   58.1241m  748.5425m 
 -453.77475m  106.6825m  700.0000m   58.2656m  748.4169m 
 -453.67475m  106.6984m  700.0000m   58.4070m  748.2914m 
 -453.57475m  106.7143m  700.0000m   58.5484m  748.1658m 
 -453.47475m  106.7301m  700.0000m   58.6898m  748.0403m 
 -453.37475m  106.7460m  700.0000m   58.8312m  747.9147m 
 -453.27475m  106.7619m  700.0000m   58.9727m  747.7892m 
 -453.17475m  106.7778m  699.9999m   59.1141m  747.6637m 
 -453.07475m  106.7938m  699.9999m   59.2555m  747.5382m 
 -452.97475m  106.8097m  699.9999m   59.3969m  747.4127m 
 -452.87475m  106.8256m  699.9999m   59.5383m  747.2872m 
 -452.77475m  106.8416m  699.9999m   59.6798m  747.1618m 
 -452.67475m  106.8576m  699.9999m   59.8212m  747.0363m 
 -452.57475m  106.8735m  699.9999m   59.9626m  746.9109m 
 -452.47475m  106.8895m  699.9999m   60.1040m  746.7855m 
 -452.37475m  106.9055m  699.9999m   60.2454m  746.6600m 
 -452.27475m  106.9216m  699.9999m   60.3869m  746.5346m 
 -452.17475m  106.9376m  699.9999m   60.5283m  746.4093m 
 -452.07475m  106.9536m  699.9999m   60.6697m  746.2839m 
 -451.97475m  106.9697m  699.9999m   60.8111m  746.1585m 
 -451.87475m  106.9858m  699.9999m   60.9526m  746.0331m 
 -451.77475m  107.0018m  699.9999m   61.0940m  745.9078m 
 -451.67475m  107.0179m  699.9999m   61.2354m  745.7825m 
 -451.57475m  107.0340m  699.9999m   61.3768m  745.6571m 
 -451.47475m  107.0501m  699.9999m   61.5182m  745.5318m 
 -451.37475m  107.0663m  699.9999m   61.6597m  745.4065m 
 -451.27475m  107.0824m  699.9999m   61.8011m  745.2813m 
 -451.17475m  107.0985m  699.9999m   61.9425m  745.1560m 
 -451.07475m  107.1147m  699.9999m   62.0839m  745.0307m 
 -450.97475m  107.1309m  699.9999m   62.2253m  744.9055m 
 -450.87475m  107.1471m  699.9999m   62.3668m  744.7802m 
 -450.77475m  107.1632m  699.9999m   62.5082m  744.6550m 
 -450.67475m  107.1795m  699.9999m   62.6496m  744.5298m 
 -450.57475m  107.1957m  699.9999m   62.7910m  744.4046m 
 -450.47475m  107.2119m  699.9999m   62.9324m  744.2794m 
 -450.37475m  107.2281m  699.9999m   63.0739m  744.1542m 
 -450.27475m  107.2444m  699.9999m   63.2153m  744.0291m 
 -450.17475m  107.2607m  699.9999m   63.3567m  743.9039m 
 -450.07475m  107.2769m  699.9999m   63.4981m  743.7788m 
 -449.97475m  107.2932m  699.9999m   63.6396m  743.6536m 
 -449.87475m  107.3095m  699.9999m   63.7810m  743.5285m 
 -449.77475m  107.3259m  699.9999m   63.9224m  743.4034m 
 -449.67475m  107.3422m  699.9999m   64.0638m  743.2783m 
 -449.57475m  107.3585m  699.9999m   64.2052m  743.1532m 
 -449.47475m  107.3749m  699.9999m   64.3467m  743.0282m 
 -449.37475m  107.3912m  699.9999m   64.4881m  742.9031m 
 -449.27475m  107.4076m  699.9999m   64.6295m  742.7781m 
 -449.17475m  107.4240m  699.9999m   64.7709m  742.6530m 
 -449.07475m  107.4404m  699.9999m   64.9123m  742.5280m 
 -448.97475m  107.4568m  699.9999m   65.0538m  742.4030m 
 -448.87475m  107.4732m  699.9999m   65.1952m  742.2780m 
 -448.77475m  107.4897m  699.9999m   65.3366m  742.1530m 
 -448.67475m  107.5061m  699.9999m   65.4780m  742.0280m 
 -448.57475m  107.5226m  699.9999m   65.6194m  741.9031m 
 -448.47475m  107.5391m  699.9999m   65.7609m  741.7781m 
 -448.37475m  107.5555m  699.9999m   65.9023m  741.6532m 
 -448.27475m  107.5720m  699.9999m   66.0437m  741.5283m 
 -448.17475m  107.5886m  699.9999m   66.1851m  741.4034m 
 -448.07475m  107.6051m  699.9999m   66.3265m  741.2785m 
 -447.97475m  107.6216m  699.9999m   66.4680m  741.1536m 
 -447.87475m  107.6382m  699.9999m   66.6094m  741.0287m 
 -447.77475m  107.6547m  699.9999m   66.7508m  740.9038m 
 -447.67475m  107.6713m  699.9999m   66.8922m  740.7790m 
 -447.57475m  107.6879m  699.9999m   67.0337m  740.6541m 
 -447.47475m  107.7045m  699.9999m   67.1751m  740.5293m 
 -447.37475m  107.7211m  699.9999m   67.3165m  740.4045m 
 -447.27475m  107.7377m  699.9999m   67.4579m  740.2797m 
 -447.17475m  107.7543m  699.9999m   67.5993m  740.1549m 
 -447.07475m  107.7710m  699.9999m   67.7408m  740.0301m 
 -446.97475m  107.7876m  699.9999m   67.8822m  739.9054m 
 -446.87475m  107.8043m  699.9999m   68.0236m  739.7806m 
 -446.77475m  107.8210m  699.9999m   68.1650m  739.6559m 
 -446.67475m  107.8377m  699.9999m   68.3064m  739.5312m 
 -446.57475m  107.8544m  699.9999m   68.4479m  739.4064m 
 -446.47475m  107.8711m  699.9999m   68.5893m  739.2817m 
 -446.37475m  107.8878m  699.9999m   68.7307m  739.1571m 
 -446.27475m  107.9046m  699.9999m   68.8721m  739.0324m 
 -446.17475m  107.9213m  699.9999m   69.0135m  738.9077m 
 -446.07475m  107.9381m  699.9999m   69.1550m  738.7831m 
 -445.97475m  107.9549m  699.9999m   69.2964m  738.6584m 
 -445.87475m  107.9717m  699.9999m   69.4378m  738.5338m 
 -445.77475m  107.9885m  699.9999m   69.5792m  738.4092m 
 -445.67475m  108.0053m  699.9999m   69.7207m  738.2846m 
 -445.57475m  108.0221m  699.9999m   69.8621m  738.1600m 
 -445.47475m  108.0390m  699.9999m   70.0035m  738.0354m 
 -445.37475m  108.0558m  699.9999m   70.1449m  737.9108m 
 -445.27475m  108.0727m  699.9999m   70.2863m  737.7863m 
 -445.17475m  108.0896m  699.9999m   70.4278m  737.6618m 
 -445.07475m  108.1065m  699.9999m   70.5692m  737.5372m 
 -444.97475m  108.1234m  699.9999m   70.7106m  737.4127m 
 -444.87475m  108.1403m  699.9999m   70.8520m  737.2882m 
 -444.77475m  108.1572m  699.9999m   70.9934m  737.1637m 
 -444.67475m  108.1742m  699.9999m   71.1349m  737.0392m 
 -444.57475m  108.1911m  699.9999m   71.2763m  736.9148m 
 -444.47475m  108.2081m  699.9999m   71.4177m  736.7903m 
 -444.37475m  108.2251m  699.9999m   71.5591m  736.6659m 
 -444.27475m  108.2421m  699.9999m   71.7005m  736.5415m 
 -444.17475m  108.2591m  699.9999m   71.8420m  736.4170m 
 -444.07475m  108.2761m  699.9999m   71.9834m  736.2926m 
 -443.97475m  108.2932m  699.9999m   72.1248m  736.1683m 
 -443.87475m  108.3102m  699.9999m   72.2662m  736.0439m 
 -443.77475m  108.3273m  699.9999m   72.4077m  735.9195m 
 -443.67475m  108.3443m  699.9999m   72.5491m  735.7952m 
 -443.57475m  108.3614m  699.9999m   72.6905m  735.6708m 
 -443.47475m  108.3785m  699.9999m   72.8319m  735.5465m 
 -443.37475m  108.3956m  699.9999m   72.9733m  735.4222m 
 -443.27475m  108.4127m  699.9999m   73.1148m  735.2979m 
 -443.17475m  108.4299m  699.9999m   73.2562m  735.1736m 
 -443.07475m  108.4470m  699.9999m   73.3976m  735.0493m 
 -442.97475m  108.4642m  699.9999m   73.5390m  734.9251m 
 -442.87475m  108.4814m  699.9999m   73.6804m  734.8008m 
 -442.77475m  108.4985m  699.9999m   73.8219m  734.6766m 
 -442.67475m  108.5157m  699.9999m   73.9633m  734.5524m 
 -442.57475m  108.5330m  699.9999m   74.1047m  734.4282m 
 -442.47475m  108.5502m  699.9999m   74.2461m  734.3040m 
 -442.37475m  108.5674m  699.9999m   74.3875m  734.1798m 
 -442.27475m  108.5847m  699.9999m   74.5290m  734.0556m 
 -442.17475m  108.6019m  699.9999m   74.6704m  733.9315m 
 -442.07475m  108.6192m  699.9999m   74.8118m  733.8073m 
 -441.97475m  108.6365m  699.9999m   74.9532m  733.6832m 
 -441.87475m  108.6538m  699.9999m   75.0946m  733.5591m 
 -441.77475m  108.6711m  699.9999m   75.2361m  733.4350m 
 -441.67475m  108.6884m  699.9999m   75.3775m  733.3109m 
 -441.57475m  108.7058m  699.9999m   75.5189m  733.1868m 
 -441.47475m  108.7231m  699.9999m   75.6603m  733.0627m 
 -441.37475m  108.7405m  699.9999m   75.8018m  732.9387m 
 -441.27475m  108.7579m  699.9999m   75.9432m  732.8146m 
 -441.17475m  108.7753m  699.9999m   76.0846m  732.6906m 
 -441.07475m  108.7927m  699.9999m   76.2260m  732.5666m 
 -440.97475m  108.8101m  699.9999m   76.3674m  732.4426m 
 -440.87475m  108.8275m  699.9999m   76.5089m  732.3186m 
 -440.77475m  108.8450m  699.9999m   76.6503m  732.1946m 
 -440.67475m  108.8624m  699.9999m   76.7917m  732.0706m 
 -440.57475m  108.8799m  699.9999m   76.9331m  731.9467m 
 -440.47475m  108.8974m  699.9999m   77.0745m  731.8228m 
 -440.37475m  108.9149m  699.9999m   77.2160m  731.6988m 
 -440.27475m  108.9324m  699.9999m   77.3574m  731.5749m 
 -440.17475m  108.9499m  699.9999m   77.4988m  731.4510m 
 -440.07475m  108.9675m  699.9999m   77.6402m  731.3271m 
 -439.97475m  108.9850m  699.9999m   77.7816m  731.2033m 
 -439.87475m  109.0026m  699.9999m   77.9231m  731.0794m 
 -439.77475m  109.0202m  699.9999m   78.0645m  730.9556m 
 -439.67475m  109.0377m  699.9999m   78.2059m  730.8317m 
 -439.57475m  109.0553m  699.9999m   78.3473m  730.7079m 
 -439.47475m  109.0730m  699.9999m   78.4887m  730.5841m 
 -439.37475m  109.0906m  699.9999m   78.6302m  730.4603m 
 -439.27475m  109.1082m  699.9999m   78.7716m  730.3365m 
 -439.17475m  109.1259m  699.9999m   78.9130m  730.2128m 
 -439.07475m  109.1436m  699.9999m   79.0544m  730.0890m 
 -438.97475m  109.1612m  699.9999m   79.1958m  729.9653m 
 -438.87475m  109.1789m  699.9999m   79.3373m  729.8416m 
 -438.77475m  109.1966m  699.9999m   79.4787m  729.7178m 
 -438.67475m  109.2144m  699.9999m   79.6201m  729.5941m 
 -438.57475m  109.2321m  699.9999m   79.7615m  729.4705m 
 -438.47475m  109.2499m  699.9999m   79.9030m  729.3468m 
 -438.37475m  109.2676m  699.9999m   80.0444m  729.2231m 
 -438.27475m  109.2854m  699.9999m   80.1858m  729.0995m 
 -438.17475m  109.3032m  699.9999m   80.3272m  728.9759m 
 -438.07475m  109.3210m  699.9999m   80.4686m  728.8522m 
 -437.97475m  109.3388m  699.9999m   80.6101m  728.7286m 
 -437.87475m  109.3566m  699.9999m   80.7515m  728.6050m 
 -437.77475m  109.3745m  699.9999m   80.8929m  728.4815m 
 -437.67475m  109.3923m  699.9999m   81.0343m  728.3579m 
 -437.57475m  109.4102m  699.9999m   81.1757m  728.2343m 
 -437.47475m  109.4281m  699.9999m   81.3172m  728.1108m 
 -437.37475m  109.4460m  699.9999m   81.4586m  727.9873m 
 -437.27475m  109.4639m  699.9999m   81.6000m  727.8638m 
 -437.17475m  109.4818m  699.9999m   81.7414m  727.7403m 
 -437.07475m  109.4997m  699.9999m   81.8828m  727.6168m 
 -436.97475m  109.5177m  699.9999m   82.0243m  727.4933m 
 -436.87475m  109.5357m  699.9999m   82.1657m  727.3699m 
 -436.77475m  109.5536m  699.9999m   82.3071m  727.2464m 
 -436.67475m  109.5716m  699.9999m   82.4485m  727.1230m 
 -436.57475m  109.5896m  699.9999m   82.5899m  726.9996m 
 -436.47475m  109.6077m  699.9999m   82.7314m  726.8762m 
 -436.37475m  109.6257m  699.9999m   82.8728m  726.7528m 
 -436.27475m  109.6437m  699.9999m   83.0142m  726.6294m 
 -436.17475m  109.6618m  699.9999m   83.1556m  726.5060m 
 -436.07475m  109.6799m  699.9999m   83.2970m  726.3827m 
 -435.97475m  109.6979m  699.9999m   83.4385m  726.2593m 
 -435.87475m  109.7160m  699.9999m   83.5799m  726.1360m 
 -435.77475m  109.7342m  699.9999m   83.7213m  726.0127m 
 -435.67475m  109.7523m  699.9999m   83.8627m  725.8894m 
 -435.57475m  109.7704m  699.9999m   84.0042m  725.7661m 
 -435.47475m  109.7886m  699.9999m   84.1456m  725.6429m 
 -435.37475m  109.8067m  699.9999m   84.2870m  725.5196m 
 -435.27475m  109.8249m  699.9999m   84.4284m  725.3964m 
 -435.17475m  109.8431m  699.9999m   84.5698m  725.2732m 
 -435.07475m  109.8613m  699.9999m   84.7113m  725.1499m 
 -434.97475m  109.8796m  699.9999m   84.8527m  725.0267m 
 -434.87475m  109.8978m  699.9999m   84.9941m  724.9036m 
 -434.77475m  109.9160m  699.9999m   85.1355m  724.7804m 
 -434.67475m  109.9343m  699.9999m   85.2769m  724.6572m 
 -434.57475m  109.9526m  699.9999m   85.4184m  724.5341m 
 -434.47475m  109.9709m  699.9999m   85.5598m  724.4110m 
 -434.37475m  109.9892m  699.9999m   85.7012m  724.2878m 
 -434.27475m  110.0075m  699.9999m   85.8426m  724.1647m 
 -434.17475m  110.0258m  699.9999m   85.9840m  724.0417m 
 -434.07475m  110.0442m  699.9999m   86.1255m  723.9186m 
 -433.97475m  110.0625m  699.9999m   86.2669m  723.7955m 
 -433.87475m  110.0809m  699.9999m   86.4083m  723.6725m 
 -433.77475m  110.0993m  699.9999m   86.5497m  723.5494m 
 -433.67475m  110.1177m  699.9999m   86.6911m  723.4264m 
 -433.57475m  110.1361m  699.9999m   86.8326m  723.3034m 
 -433.47475m  110.1546m  699.9999m   86.9740m  723.1804m 
 -433.37475m  110.1730m  699.9998m   87.1154m  723.0575m 
 -433.27475m  110.1915m  699.9998m   87.2568m  722.9345m 
 -433.17475m  110.2099m  699.9998m   87.3982m  722.8115m 
 -433.07475m  110.2284m  699.9998m   87.5397m  722.6886m 
 -432.97475m  110.2469m  699.9998m   87.6811m  722.5657m 
 -432.87475m  110.2654m  699.9998m   87.8225m  722.4428m 
 -432.77475m  110.2840m  699.9998m   87.9639m  722.3199m 
 -432.67475m  110.3025m  699.9998m   88.1053m  722.1970m 
 -432.57475m  110.3211m  699.9998m   88.2468m  722.0741m 
 -432.47475m  110.3396m  699.9998m   88.3882m  721.9513m 
 -432.37475m  110.3582m  699.9998m   88.5296m  721.8285m 
 -432.27475m  110.3768m  699.9998m   88.6710m  721.7056m 
 -432.17475m  110.3954m  699.9998m   88.8125m  721.5828m 
 -432.07475m  110.4141m  699.9998m   88.9539m  721.4600m 
 -431.97475m  110.4327m  699.9998m   89.0953m  721.3373m 
 -431.87475m  110.4514m  699.9998m   89.2367m  721.2145m 
 -431.77475m  110.4700m  699.9998m   89.3781m  721.0917m 
 -431.67475m  110.4887m  699.9998m   89.5196m  720.9690m 
 -431.57475m  110.5074m  699.9998m   89.6610m  720.8463m 
 -431.47475m  110.5261m  699.9998m   89.8024m  720.7236m 
 -431.37475m  110.5449m  699.9998m   89.9438m  720.6009m 
 -431.27475m  110.5636m  699.9998m   90.0852m  720.4782m 
 -431.17475m  110.5824m  699.9998m   90.2267m  720.3555m 
 -431.07475m  110.6011m  699.9998m   90.3681m  720.2329m 
 -430.97475m  110.6199m  699.9998m   90.5095m  720.1102m 
 -430.87475m  110.6387m  699.9998m   90.6509m  719.9876m 
 -430.77475m  110.6575m  699.9998m   90.7923m  719.8650m 
 -430.67475m  110.6763m  699.9998m   90.9338m  719.7424m 
 -430.57475m  110.6952m  699.9998m   91.0752m  719.6198m 
 -430.47475m  110.7140m  699.9998m   91.2166m  719.4973m 
 -430.37475m  110.7329m  699.9998m   91.3580m  719.3747m 
 -430.27475m  110.7518m  699.9998m   91.4994m  719.2522m 
 -430.17475m  110.7707m  699.9998m   91.6409m  719.1296m 
 -430.07475m  110.7896m  699.9998m   91.7823m  719.0071m 
 -429.97475m  110.8085m  699.9998m   91.9237m  718.8846m 
 -429.87475m  110.8275m  699.9998m   92.0651m  718.7622m 
 -429.77475m  110.8464m  699.9998m   92.2065m  718.6397m 
 -429.67475m  110.8654m  699.9998m   92.3480m  718.5172m 
 -429.57475m  110.8844m  699.9998m   92.4894m  718.3948m 
 -429.47475m  110.9034m  699.9998m   92.6308m  718.2724m 
 -429.37475m  110.9224m  699.9998m   92.7722m  718.1500m 
 -429.27475m  110.9414m  699.9998m   92.9136m  718.0276m 
 -429.17475m  110.9605m  699.9998m   93.0551m  717.9052m 
 -429.07475m  110.9795m  699.9998m   93.1965m  717.7828m 
 -428.97475m  110.9986m  699.9998m   93.3379m  717.6605m 
 -428.87475m  111.0177m  699.9998m   93.4793m  717.5382m 
 -428.77475m  111.0368m  699.9998m   93.6207m  717.4158m 
 -428.67475m  111.0559m  699.9998m   93.7622m  717.2935m 
 -428.57475m  111.0750m  699.9998m   93.9036m  717.1712m 
 -428.47475m  111.0942m  699.9998m   94.0450m  717.0490m 
 -428.37475m  111.1133m  699.9998m   94.1864m  716.9267m 
 -428.27475m  111.1325m  699.9998m   94.3278m  716.8044m 
 -428.17475m  111.1517m  699.9998m   94.4693m  716.6822m 
 -428.07475m  111.1709m  699.9998m   94.6107m  716.5600m 
 -427.97475m  111.1901m  699.9998m   94.7521m  716.4378m 
 -427.87475m  111.2093m  699.9998m   94.8935m  716.3156m 
 -427.77475m  111.2286m  699.9998m   95.0349m  716.1934m 
 -427.67475m  111.2478m  699.9998m   95.1764m  716.0713m 
 -427.57475m  111.2671m  699.9998m   95.3178m  715.9491m 
 -427.47475m  111.2864m  699.9998m   95.4592m  715.8270m 
 -427.37475m  111.3057m  699.9998m   95.6006m  715.7049m 
 -427.27475m  111.3250m  699.9998m   95.7420m  715.5828m 
 -427.17475m  111.3444m  699.9998m   95.8835m  715.4607m 
 -427.07475m  111.3637m  699.9998m   96.0249m  715.3386m 
 -426.97475m  111.3831m  699.9998m   96.1663m  715.2166m 
 -426.87475m  111.4025m  699.9998m   96.3077m  715.0945m 
 -426.77475m  111.4218m  699.9998m   96.4491m  714.9725m 
 -426.67475m  111.4413m  699.9998m   96.5906m  714.8505m 
 -426.57475m  111.4607m  699.9998m   96.7320m  714.7285m 
 -426.47475m  111.4801m  699.9998m   96.8734m  714.6065m 
 -426.37475m  111.4996m  699.9998m   97.0148m  714.4845m 
 -426.27475m  111.5190m  699.9998m   97.1562m  714.3626m 
 -426.17475m  111.5385m  699.9998m   97.2977m  714.2406m 
 -426.07475m  111.5580m  699.9998m   97.4391m  714.1187m 
 -425.97475m  111.5775m  699.9998m   97.5805m  713.9968m 
 -425.87475m  111.5971m  699.9998m   97.7219m  713.8749m 
 -425.77475m  111.6166m  699.9998m   97.8633m  713.7530m 
 -425.67475m  111.6362m  699.9998m   98.0048m  713.6312m 
 -425.57475m  111.6557m  699.9998m   98.1462m  713.5093m 
 -425.47475m  111.6753m  699.9998m   98.2876m  713.3875m 
 -425.37475m  111.6949m  699.9998m   98.4290m  713.2657m 
 -425.27475m  111.7145m  699.9998m   98.5704m  713.1439m 
 -425.17475m  111.7342m  699.9998m   98.7119m  713.0221m 
 -425.07475m  111.7538m  699.9998m   98.8533m  712.9003m 
 -424.97475m  111.7735m  699.9998m   98.9947m  712.7785m 
 -424.87475m  111.7932m  699.9998m   99.1361m  712.6568m 
 -424.77475m  111.8129m  699.9998m   99.2775m  712.5351m 
 -424.67475m  111.8326m  699.9998m   99.4190m  712.4133m 
 -424.57475m  111.8523m  699.9998m   99.5604m  712.2916m 
 -424.47475m  111.8720m  699.9998m   99.7018m  712.1700m 
 -424.37475m  111.8918m  699.9997m   99.8432m  712.0483m 
 -424.27475m  111.9115m  699.9997m   99.9846m  711.9266m 
 -424.17475m  111.9313m  699.9997m  100.1261m  711.8050m 
 -424.07475m  111.9511m  699.9997m  100.2675m  711.6834m 
 -423.97475m  111.9709m  699.9997m  100.4089m  711.5618m 
 -423.87475m  111.9908m  699.9997m  100.5503m  711.4402m 
 -423.77475m  112.0106m  699.9997m  100.6917m  711.3186m 
 -423.67475m  112.0305m  699.9997m  100.8332m  711.1970m 
 -423.57475m  112.0503m  699.9997m  100.9746m  711.0755m 
 -423.47475m  112.0702m  699.9997m  101.1160m  710.9540m 
 -423.37475m  112.0901m  699.9997m  101.2574m  710.8324m 
 -423.27475m  112.1101m  699.9997m  101.3988m  710.7109m 
 -423.17475m  112.1300m  699.9997m  101.5403m  710.5895m 
 -423.07475m  112.1499m  699.9997m  101.6817m  710.4680m 
 -422.97475m  112.1699m  699.9997m  101.8231m  710.3465m 
 -422.87475m  112.1899m  699.9997m  101.9645m  710.2251m 
 -422.77475m  112.2099m  699.9997m  102.1059m  710.1037m 
 -422.67475m  112.2299m  699.9997m  102.2474m  709.9823m 
 -422.57475m  112.2499m  699.9997m  102.3888m  709.8609m 
 -422.47475m  112.2700m  699.9997m  102.5302m  709.7395m 
 -422.37475m  112.2900m  699.9997m  102.6716m  709.6181m 
 -422.27475m  112.3101m  699.9997m  102.8130m  709.4968m 
 -422.17475m  112.3302m  699.9997m  102.9545m  709.3754m 
 -422.07475m  112.3503m  699.9997m  103.0959m  709.2541m 
 -421.97475m  112.3704m  699.9997m  103.2373m  709.1328m 
 -421.87475m  112.3905m  699.9997m  103.3787m  709.0115m 
 -421.77475m  112.4107m  699.9997m  103.5201m  708.8903m 
 -421.67475m  112.4309m  699.9997m  103.6616m  708.7690m 
 -421.57475m  112.4510m  699.9997m  103.8030m  708.6478m 
 -421.47475m  112.4712m  699.9997m  103.9444m  708.5265m 
 -421.37475m  112.4915m  699.9997m  104.0858m  708.4053m 
 -421.27475m  112.5117m  699.9997m  104.2272m  708.2841m 
 -421.17475m  112.5319m  699.9997m  104.3687m  708.1630m 
 -421.07475m  112.5522m  699.9997m  104.5101m  708.0418m 
 -420.97475m  112.5725m  699.9997m  104.6515m  707.9207m 
 -420.87475m  112.5927m  699.9997m  104.7929m  707.7995m 
 -420.77475m  112.6131m  699.9997m  104.9343m  707.6784m 
 -420.67475m  112.6334m  699.9997m  105.0758m  707.5573m 
 -420.57475m  112.6537m  699.9997m  105.2172m  707.4362m 
 -420.47475m  112.6741m  699.9997m  105.3586m  707.3152m 
 -420.37475m  112.6944m  699.9997m  105.5000m  707.1941m 
 -420.27475m  112.7148m  699.9997m  105.6414m  707.0731m 
 -420.17475m  112.7352m  699.9997m  105.7829m  706.9520m 
 -420.07475m  112.7556m  699.9997m  105.9243m  706.8310m 
 -419.97475m  112.7761m  699.9997m  106.0657m  706.7100m 
 -419.87475m  112.7965m  699.9997m  106.2071m  706.5891m 
 -419.77475m  112.8170m  699.9997m  106.3485m  706.4681m 
 -419.67475m  112.8375m  699.9997m  106.4900m  706.3472m 
 -419.57475m  112.8579m  699.9997m  106.6314m  706.2262m 
 -419.47475m  112.8785m  699.9997m  106.7728m  706.1053m 
 -419.37475m  112.8990m  699.9997m  106.9142m  705.9844m 
 -419.27475m  112.9195m  699.9997m  107.0556m  705.8636m 
 -419.17475m  112.9401m  699.9997m  107.1971m  705.7427m 
 -419.07475m  112.9607m  699.9997m  107.3385m  705.6218m 
 -418.97475m  112.9812m  699.9997m  107.4799m  705.5010m 
 -418.87475m  113.0019m  699.9997m  107.6213m  705.3802m 
 -418.77475m  113.0225m  699.9997m  107.7627m  705.2594m 
 -418.67475m  113.0431m  699.9997m  107.9041m  705.1386m 
 -418.57475m  113.0638m  699.9997m  108.0456m  705.0178m 
 -418.47475m  113.0844m  699.9996m  108.1870m  704.8971m 
 -418.37475m  113.1051m  699.9996m  108.3284m  704.7764m 
 -418.27475m  113.1258m  699.9996m  108.4698m  704.6556m 
 -418.17475m  113.1465m  699.9996m  108.6112m  704.5349m 
 -418.07475m  113.1673m  699.9996m  108.7527m  704.4142m 
 -417.97475m  113.1880m  699.9996m  108.8941m  704.2936m 
 -417.87475m  113.2088m  699.9996m  109.0355m  704.1729m 
 -417.77475m  113.2296m  699.9996m  109.1769m  704.0523m 
 -417.67475m  113.2504m  699.9996m  109.3183m  703.9316m 
 -417.57475m  113.2712m  699.9996m  109.4598m  703.8110m 
 -417.47475m  113.2920m  699.9996m  109.6012m  703.6904m 
 -417.37475m  113.3128m  699.9996m  109.7426m  703.5699m 
 -417.27475m  113.3337m  699.9996m  109.8840m  703.4493m 
 -417.17475m  113.3546m  699.9996m  110.0254m  703.3288m 
 -417.07475m  113.3755m  699.9996m  110.1669m  703.2082m 
 -416.97475m  113.3964m  699.9996m  110.3083m  703.0877m 
 -416.87475m  113.4173m  699.9996m  110.4497m  702.9672m 
 -416.77475m  113.4382m  699.9996m  110.5911m  702.8467m 
 -416.67475m  113.4592m  699.9996m  110.7325m  702.7263m 
 -416.57475m  113.4802m  699.9996m  110.8740m  702.6058m 
 -416.47475m  113.5012m  699.9996m  111.0154m  702.4854m 
 -416.37475m  113.5222m  699.9996m  111.1568m  702.3650m 
 -416.27475m  113.5432m  699.9996m  111.2982m  702.2446m 
 -416.17475m  113.5642m  699.9996m  111.4396m  702.1242m 
 -416.07475m  113.5853m  699.9996m  111.5810m  702.0038m 
 -415.97475m  113.6064m  699.9996m  111.7225m  701.8835m 
 -415.87475m  113.6275m  699.9996m  111.8639m  701.7632m 
 -415.77475m  113.6486m  699.9996m  112.0053m  701.6428m 
 -415.67475m  113.6697m  699.9996m  112.1467m  701.5225m 
 -415.57475m  113.6908m  699.9996m  112.2881m  701.4023m 
 -415.47475m  113.7120m  699.9996m  112.4296m  701.2820m 
 -415.37475m  113.7331m  699.9996m  112.5710m  701.1617m 
 -415.27475m  113.7543m  699.9996m  112.7124m  701.0415m 
 -415.17475m  113.7755m  699.9996m  112.8538m  700.9213m 
 -415.07475m  113.7967m  699.9996m  112.9952m  700.8011m 
 -414.97475m  113.8180m  699.9996m  113.1367m  700.6809m 
 -414.87475m  113.8392m  699.9996m  113.2781m  700.5607m 
 -414.77475m  113.8605m  699.9996m  113.4195m  700.4406m 
 -414.67475m  113.8818m  699.9996m  113.5609m  700.3204m 
 -414.57475m  113.9031m  699.9996m  113.7023m  700.2003m 
 -414.47475m  113.9244m  699.9996m  113.8438m  700.0802m 
 -414.37475m  113.9457m  699.9996m  113.9852m  699.9601m 
 -414.27475m  113.9671m  699.9996m  114.1266m  699.8400m 
 -414.17475m  113.9885m  699.9996m  114.2680m  699.7200m 
 -414.07475m  114.0098m  699.9995m  114.4094m  699.6000m 
 -413.97475m  114.0312m  699.9995m  114.5508m  699.4799m 
 -413.87475m  114.0526m  699.9995m  114.6923m  699.3599m 
 -413.77475m  114.0741m  699.9995m  114.8337m  699.2399m 
 -413.67475m  114.0955m  699.9995m  114.9751m  699.1200m 
 -413.57475m  114.1170m  699.9995m  115.1165m  699.0000m 
 -413.47475m  114.1385m  699.9995m  115.2579m  698.8801m 
 -413.37475m  114.1600m  699.9995m  115.3994m  698.7602m 
 -413.27475m  114.1815m  699.9995m  115.5408m  698.6402m 
 -413.17475m  114.2030m  699.9995m  115.6822m  698.5204m 
 -413.07475m  114.2246m  699.9995m  115.8236m  698.4005m 
 -412.97475m  114.2461m  699.9995m  115.9650m  698.2806m 
 -412.87475m  114.2677m  699.9995m  116.1064m  698.1608m 
 -412.77475m  114.2893m  699.9995m  116.2479m  698.0410m 
 -412.67475m  114.3109m  699.9995m  116.3893m  697.9212m 
 -412.57475m  114.3326m  699.9995m  116.5307m  697.8014m 
 -412.47475m  114.3542m  699.9995m  116.6721m  697.6816m 
 -412.37475m  114.3759m  699.9995m  116.8135m  697.5619m 
 -412.27475m  114.3976m  699.9995m  116.9550m  697.4421m 
 -412.17475m  114.4193m  699.9995m  117.0964m  697.3224m 
 -412.07475m  114.4410m  699.9995m  117.2378m  697.2027m 
 -411.97475m  114.4627m  699.9995m  117.3792m  697.0830m 
 -411.87475m  114.4845m  699.9995m  117.5206m  696.9633m 
 -411.77475m  114.5063m  699.9995m  117.6621m  696.8437m 
 -411.67475m  114.5280m  699.9995m  117.8035m  696.7240m 
 -411.57475m  114.5498m  699.9995m  117.9449m  696.6044m 
 -411.47475m  114.5717m  699.9995m  118.0863m  696.4848m 
 -411.37475m  114.5935m  699.9995m  118.2277m  696.3652m 
 -411.27475m  114.6153m  699.9995m  118.3691m  696.2457m 
 -411.17475m  114.6372m  699.9995m  118.5106m  696.1261m 
 -411.07475m  114.6591m  699.9995m  118.6520m  696.0066m 
 -410.97475m  114.6810m  699.9995m  118.7934m  695.8871m 
 -410.87475m  114.7029m  699.9995m  118.9348m  695.7676m 
 -410.77475m  114.7249m  699.9995m  119.0762m  695.6481m 
 -410.67475m  114.7468m  699.9995m  119.2177m  695.5286m 
 -410.57475m  114.7688m  699.9994m  119.3591m  695.4092m 
 -410.47475m  114.7908m  699.9994m  119.5005m  695.2897m 
 -410.37475m  114.8128m  699.9994m  119.6419m  695.1703m 
 -410.27475m  114.8348m  699.9994m  119.7833m  695.0509m 
 -410.17475m  114.8568m  699.9994m  119.9247m  694.9315m 
 -410.07475m  114.8789m  699.9994m  120.0662m  694.8122m 
 -409.97475m  114.9010m  699.9994m  120.2076m  694.6928m 
 -409.87475m  114.9231m  699.9994m  120.3490m  694.5735m 
 -409.77475m  114.9452m  699.9994m  120.4904m  694.4542m 
 -409.67475m  114.9673m  699.9994m  120.6318m  694.3349m 
 -409.57475m  114.9894m  699.9994m  120.7733m  694.2156m 
 -409.47475m  115.0116m  699.9994m  120.9147m  694.0964m 
 -409.37475m  115.0338m  699.9994m  121.0561m  693.9771m 
 -409.27475m  115.0560m  699.9994m  121.1975m  693.8579m 
 -409.17475m  115.0782m  699.9994m  121.3389m  693.7387m 
 -409.07475m  115.1004m  699.9994m  121.4803m  693.6195m 
 -408.97475m  115.1227m  699.9994m  121.6218m  693.5003m 
 -408.87475m  115.1449m  699.9994m  121.7632m  693.3811m 
 -408.77475m  115.1672m  699.9994m  121.9046m  693.2620m 
 -408.67475m  115.1895m  699.9994m  122.0460m  693.1429m 
 -408.57475m  115.2118m  699.9994m  122.1874m  693.0238m 
 -408.47475m  115.2342m  699.9994m  122.3288m  692.9047m 
 -408.37475m  115.2565m  699.9994m  122.4703m  692.7856m 
 -408.27475m  115.2789m  699.9994m  122.6117m  692.6666m 
 -408.17475m  115.3013m  699.9994m  122.7531m  692.5475m 
 -408.07475m  115.3237m  699.9994m  122.8945m  692.4285m 
 -407.97475m  115.3461m  699.9994m  123.0359m  692.3095m 
 -407.87475m  115.3685m  699.9994m  123.1774m  692.1905m 
 -407.77475m  115.3910m  699.9994m  123.3188m  692.0716m 
 -407.67475m  115.4135m  699.9993m  123.4602m  691.9526m 
 -407.57475m  115.4359m  699.9993m  123.6016m  691.8337m 
 -407.47475m  115.4585m  699.9993m  123.7430m  691.7148m 
 -407.37475m  115.4810m  699.9993m  123.8844m  691.5959m 
 -407.27475m  115.5035m  699.9993m  124.0259m  691.4770m 
 -407.17475m  115.5261m  699.9993m  124.1673m  691.3581m 
 -407.07475m  115.5487m  699.9993m  124.3087m  691.2393m 
 -406.97475m  115.5713m  699.9993m  124.4501m  691.1205m 
 -406.87475m  115.5939m  699.9993m  124.5915m  691.0017m 
 -406.77475m  115.6165m  699.9993m  124.7329m  690.8829m 
 -406.67475m  115.6392m  699.9993m  124.8744m  690.7641m 
 -406.57475m  115.6618m  699.9993m  125.0158m  690.6453m 
 -406.47475m  115.6845m  699.9993m  125.1572m  690.5266m 
 -406.37475m  115.7072m  699.9993m  125.2986m  690.4079m 
 -406.27475m  115.7299m  699.9993m  125.4400m  690.2892m 
 -406.17475m  115.7527m  699.9993m  125.5815m  690.1705m 
 -406.07475m  115.7754m  699.9993m  125.7229m  690.0518m 
 -405.97475m  115.7982m  699.9993m  125.8643m  689.9332m 
 -405.87475m  115.8210m  699.9993m  126.0057m  689.8146m 
 -405.77475m  115.8438m  699.9993m  126.1471m  689.6959m 
 -405.67475m  115.8666m  699.9993m  126.2885m  689.5773m 
 -405.57475m  115.8895m  699.9993m  126.4300m  689.4588m 
 -405.47475m  115.9123m  699.9993m  126.5714m  689.3402m 
 -405.37475m  115.9352m  699.9993m  126.7128m  689.2217m 
 -405.27475m  115.9581m  699.9993m  126.8542m  689.1031m 
 -405.17475m  115.9810m  699.9992m  126.9956m  688.9846m 
 -405.07475m  116.0039m  699.9992m  127.1370m  688.8661m 
 -404.97475m  116.0269m  699.9992m  127.2785m  688.7477m 
 -404.87475m  116.0499m  699.9992m  127.4199m  688.6292m 
 -404.77475m  116.0729m  699.9992m  127.5613m  688.5108m 
 -404.67475m  116.0959m  699.9992m  127.7027m  688.3924m 
 -404.57475m  116.1189m  699.9992m  127.8441m  688.2740m 
 -404.47475m  116.1419m  699.9992m  127.9855m  688.1556m 
 -404.37475m  116.1650m  699.9992m  128.1270m  688.0372m 
 -404.27475m  116.1881m  699.9992m  128.2684m  687.9189m 
 -404.17475m  116.2112m  699.9992m  128.4098m  687.8006m 
 -404.07475m  116.2343m  699.9992m  128.5512m  687.6823m 
 -403.97475m  116.2574m  699.9992m  128.6926m  687.5640m 
 -403.87475m  116.2805m  699.9992m  128.8340m  687.4457m 
 -403.77475m  116.3037m  699.9992m  128.9755m  687.3274m 
 -403.67475m  116.3269m  699.9992m  129.1169m  687.2092m 
 -403.57475m  116.3501m  699.9992m  129.2583m  687.0910m 
 -403.47475m  116.3733m  699.9992m  129.3997m  686.9728m 
 -403.37475m  116.3966m  699.9992m  129.5411m  686.8546m 
 -403.27475m  116.4198m  699.9992m  129.6825m  686.7364m 
 -403.17475m  116.4431m  699.9992m  129.8240m  686.6183m 
 -403.07475m  116.4664m  699.9991m  129.9654m  686.5002m 
 -402.97475m  116.4897m  699.9991m  130.1068m  686.3821m 
 -402.87475m  116.5130m  699.9991m  130.2482m  686.2640m 
 -402.77475m  116.5364m  699.9991m  130.3896m  686.1459m 
 -402.67475m  116.5597m  699.9991m  130.5310m  686.0278m 
 -402.57475m  116.5831m  699.9991m  130.6725m  685.9098m 
 -402.47475m  116.6065m  699.9991m  130.8139m  685.7918m 
 -402.37475m  116.6300m  699.9991m  130.9553m  685.6738m 
 -402.27475m  116.6534m  699.9991m  131.0967m  685.5558m 
 -402.17475m  116.6769m  699.9991m  131.2381m  685.4378m 
 -402.07475m  116.7003m  699.9991m  131.3795m  685.3199m 
 -401.97475m  116.7238m  699.9991m  131.5210m  685.2020m 
 -401.87475m  116.7473m  699.9991m  131.6624m  685.0841m 
 -401.77475m  116.7709m  699.9991m  131.8038m  684.9662m 
 -401.67475m  116.7944m  699.9991m  131.9452m  684.8483m 
 -401.57475m  116.8180m  699.9991m  132.0866m  684.7304m 
 -401.47475m  116.8416m  699.9991m  132.2280m  684.6126m 
 -401.37475m  116.8652m  699.9991m  132.3694m  684.4948m 
 -401.27475m  116.8888m  699.9991m  132.5109m  684.3770m 
 -401.17475m  116.9125m  699.9990m  132.6523m  684.2592m 
 -401.07475m  116.9361m  699.9990m  132.7937m  684.1415m 
 -400.97475m  116.9598m  699.9990m  132.9351m  684.0237m 
 -400.87475m  116.9835m  699.9990m  133.0765m  683.9060m 
 -400.77475m  117.0072m  699.9990m  133.2179m  683.7883m 
 -400.67475m  117.0309m  699.9990m  133.3594m  683.6706m 
 -400.57475m  117.0547m  699.9990m  133.5008m  683.5529m 
 -400.47475m  117.0785m  699.9990m  133.6422m  683.4353m 
 -400.37475m  117.1023m  699.9990m  133.7836m  683.3177m 
 -400.27475m  117.1261m  699.9990m  133.9250m  683.2000m 
 -400.17475m  117.1499m  699.9990m  134.0664m  683.0825m 
 -400.07475m  117.1737m  699.9990m  134.2079m  682.9649m 
 -399.97475m  117.1976m  699.9990m  134.3493m  682.8473m 
 -399.87475m  117.2215m  699.9990m  134.4907m  682.7298m 
 -399.77475m  117.2454m  699.9990m  134.6321m  682.6123m 
 -399.67475m  117.2693m  699.9990m  134.7735m  682.4948m 
 -399.57475m  117.2933m  699.9990m  134.9149m  682.3773m 
 -399.47475m  117.3172m  699.9990m  135.0563m  682.2598m 
 -399.37475m  117.3412m  699.9989m  135.1978m  682.1424m 
 -399.27475m  117.3652m  699.9989m  135.3392m  682.0250m 
 -399.17475m  117.3892m  699.9989m  135.4806m  681.9076m 
 -399.07475m  117.4132m  699.9989m  135.6220m  681.7902m 
 -398.97475m  117.4373m  699.9989m  135.7634m  681.6728m 
 -398.87475m  117.4614m  699.9989m  135.9048m  681.5555m 
 -398.77475m  117.4855m  699.9989m  136.0463m  681.4381m 
 -398.67475m  117.5096m  699.9989m  136.1877m  681.3208m 
 -398.57475m  117.5337m  699.9989m  136.3291m  681.2035m 
 -398.47475m  117.5579m  699.9989m  136.4705m  681.0862m 
 -398.37475m  117.5820m  699.9989m  136.6119m  680.9690m 
 -398.27475m  117.6062m  699.9989m  136.7533m  680.8518m 
 -398.17475m  117.6304m  699.9989m  136.8947m  680.7345m 
 -398.07475m  117.6546m  699.9989m  137.0362m  680.6173m 
 -397.97475m  117.6789m  699.9989m  137.1776m  680.5002m 
 -397.87475m  117.7031m  699.9988m  137.3190m  680.3830m 
 -397.77475m  117.7274m  699.9988m  137.4604m  680.2659m 
 -397.67475m  117.7517m  699.9988m  137.6018m  680.1487m 
 -397.57475m  117.7760m  699.9988m  137.7432m  680.0316m 
 -397.47475m  117.8004m  699.9988m  137.8846m  679.9146m 
 -397.37475m  117.8247m  699.9988m  138.0261m  679.7975m 
 -397.27475m  117.8491m  699.9988m  138.1675m  679.6804m 
 -397.17475m  117.8735m  699.9988m  138.3089m  679.5634m 
 -397.07475m  117.8979m  699.9988m  138.4503m  679.4464m 
 -396.97475m  117.9223m  699.9988m  138.5917m  679.3294m 
 -396.87475m  117.9468m  699.9988m  138.7331m  679.2124m 
 -396.77475m  117.9713m  699.9988m  138.8745m  679.0955m 
 -396.67475m  117.9958m  699.9988m  139.0160m  678.9786m 
 -396.57475m  118.0203m  699.9988m  139.1574m  678.8617m 
 -396.47475m  118.0448m  699.9988m  139.2988m  678.7448m 
 -396.37475m  118.0694m  699.9987m  139.4402m  678.6279m 
 -396.27475m  118.0939m  699.9987m  139.5816m  678.5110m 
 -396.17475m  118.1185m  699.9987m  139.7230m  678.3942m 
 -396.07475m  118.1431m  699.9987m  139.8644m  678.2774m 
 -395.97475m  118.1677m  699.9987m  140.0059m  678.1606m 
 -395.87475m  118.1924m  699.9987m  140.1473m  678.0438m 
 -395.77475m  118.2170m  699.9987m  140.2887m  677.9271m 
 -395.67475m  118.2417m  699.9987m  140.4301m  677.8103m 
 -395.57475m  118.2664m  699.9987m  140.5715m  677.6936m 
 -395.47475m  118.2912m  699.9987m  140.7129m  677.5769m 
 -395.37475m  118.3159m  699.9987m  140.8543m  677.4602m 
 -395.27475m  118.3407m  699.9987m  140.9958m  677.3436m 
 -395.17475m  118.3654m  699.9987m  141.1372m  677.2269m 
 -395.07475m  118.3902m  699.9986m  141.2786m  677.1103m 
 -394.97475m  118.4151m  699.9986m  141.4200m  676.9937m 
 -394.87475m  118.4399m  699.9986m  141.5614m  676.8771m 
 -394.77475m  118.4648m  699.9986m  141.7028m  676.7606m 
 -394.67475m  118.4896m  699.9986m  141.8442m  676.6440m 
 -394.57475m  118.5145m  699.9986m  141.9856m  676.5275m 
 -394.47475m  118.5395m  699.9986m  142.1271m  676.4110m 
 -394.37475m  118.5644m  699.9986m  142.2685m  676.2945m 
 -394.27475m  118.5893m  699.9986m  142.4099m  676.1780m 
 -394.17475m  118.6143m  699.9986m  142.5513m  676.0616m 
 -394.07475m  118.6393m  699.9986m  142.6927m  675.9452m 
 -393.97475m  118.6643m  699.9986m  142.8341m  675.8288m 
 -393.87475m  118.6894m  699.9985m  142.9755m  675.7124m 
 -393.77475m  118.7144m  699.9985m  143.1170m  675.5960m 
 -393.67475m  118.7395m  699.9985m  143.2584m  675.4797m 
 -393.57475m  118.7646m  699.9985m  143.3998m  675.3633m 
 -393.47475m  118.7897m  699.9985m  143.5412m  675.2470m 
 -393.37475m  118.8148m  699.9985m  143.6826m  675.1307m 
 -393.27475m  118.8400m  699.9985m  143.8240m  675.0145m 
 -393.17475m  118.8652m  699.9985m  143.9654m  674.8982m 
 -393.07475m  118.8904m  699.9985m  144.1068m  674.7820m 
 -392.97475m  118.9156m  699.9985m  144.2483m  674.6658m 
 -392.87475m  118.9408m  699.9985m  144.3897m  674.5496m 
 -392.77475m  118.9661m  699.9984m  144.5311m  674.4334m 
 -392.67475m  118.9913m  699.9984m  144.6725m  674.3173m 
 -392.57475m  119.0166m  699.9984m  144.8139m  674.2011m 
 -392.47475m  119.0419m  699.9984m  144.9553m  674.0850m 
 -392.37475m  119.0673m  699.9984m  145.0967m  673.9689m 
 -392.27475m  119.0926m  699.9984m  145.2381m  673.8529m 
 -392.17475m  119.1180m  699.9984m  145.3795m  673.7368m 
 -392.07475m  119.1434m  699.9984m  145.5210m  673.6208m 
 -391.97475m  119.1688m  699.9984m  145.6624m  673.5048m 
 -391.87475m  119.1942m  699.9984m  145.8038m  673.3888m 
 -391.77475m  119.2197m  699.9984m  145.9452m  673.2728m 
 -391.67475m  119.2451m  699.9983m  146.0866m  673.1569m 
 -391.57475m  119.2706m  699.9983m  146.2280m  673.0409m 
 -391.47475m  119.2961m  699.9983m  146.3694m  672.9250m 
 -391.37475m  119.3217m  699.9983m  146.5108m  672.8091m 
 -391.27475m  119.3472m  699.9983m  146.6523m  672.6933m 
 -391.17475m  119.3728m  699.9983m  146.7937m  672.5774m 
 -391.07475m  119.3984m  699.9983m  146.9351m  672.4616m 
 -390.97475m  119.4240m  699.9983m  147.0765m  672.3458m 
 -390.87475m  119.4496m  699.9983m  147.2179m  672.2300m 
 -390.77475m  119.4753m  699.9983m  147.3593m  672.1142m 
 -390.67475m  119.5009m  699.9982m  147.5007m  671.9985m 
 -390.57475m  119.5266m  699.9982m  147.6421m  671.8827m 
 -390.47475m  119.5524m  699.9982m  147.7835m  671.7670m 
 -390.37475m  119.5781m  699.9982m  147.9250m  671.6513m 
 -390.27475m  119.6038m  699.9982m  148.0664m  671.5357m 
 -390.17475m  119.6296m  699.9982m  148.2078m  671.4200m 
 -390.07475m  119.6554m  699.9982m  148.3492m  671.3044m 
 -389.97475m  119.6812m  699.9982m  148.4906m  671.1888m 
 -389.87475m  119.7071m  699.9982m  148.6320m  671.0732m 
 -389.77475m  119.7329m  699.9982m  148.7734m  670.9576m 
 -389.67475m  119.7588m  699.9981m  148.9148m  670.8421m 
 -389.57475m  119.7847m  699.9981m  149.0562m  670.7266m 
 -389.47475m  119.8106m  699.9981m  149.1977m  670.6111m 
 -389.37475m  119.8365m  699.9981m  149.3391m  670.4956m 
 -389.27475m  119.8625m  699.9981m  149.4805m  670.3801m 
 -389.17475m  119.8885m  699.9981m  149.6219m  670.2647m 
 -389.07475m  119.9145m  699.9981m  149.7633m  670.1492m 
 -388.97475m  119.9405m  699.9981m  149.9047m  670.0338m 
 -388.87475m  119.9665m  699.9981m  150.0461m  669.9185m 
 -388.77475m  119.9926m  699.9980m  150.1875m  669.8031m 
 -388.67475m  120.0186m  699.9980m  150.3289m  669.6877m 
 -388.57475m  120.0447m  699.9980m  150.4703m  669.5724m 
 -388.47475m  120.0709m  699.9980m  150.6118m  669.4571m 
 -388.37475m  120.0970m  699.9980m  150.7532m  669.3418m 
 -388.27475m  120.1232m  699.9980m  150.8946m  669.2266m 
 -388.17475m  120.1493m  699.9980m  151.0360m  669.1113m 
 -388.07475m  120.1756m  699.9980m  151.1774m  668.9961m 
 -387.97475m  120.2018m  699.9979m  151.3188m  668.8809m 
 -387.87475m  120.2280m  699.9979m  151.4602m  668.7657m 
 -387.77475m  120.2543m  699.9979m  151.6016m  668.6506m 
 -387.67475m  120.2806m  699.9979m  151.7430m  668.5354m 
 -387.57475m  120.3069m  699.9979m  151.8844m  668.4203m 
 -387.47475m  120.3332m  699.9979m  152.0258m  668.3052m 
 -387.37475m  120.3595m  699.9979m  152.1673m  668.1902m 
 -387.27475m  120.3859m  699.9979m  152.3087m  668.0751m 
 -387.17475m  120.4123m  699.9978m  152.4501m  667.9601m 
 -387.07475m  120.4387m  699.9978m  152.5915m  667.8451m 
 -386.97475m  120.4651m  699.9978m  152.7329m  667.7301m 
 -386.87475m  120.4916m  699.9978m  152.8743m  667.6151m 
 -386.77475m  120.5181m  699.9978m  153.0157m  667.5001m 
 -386.67475m  120.5445m  699.9978m  153.1571m  667.3852m 
 -386.57475m  120.5711m  699.9978m  153.2985m  667.2703m 
 -386.47475m  120.5976m  699.9978m  153.4399m  667.1554m 
 -386.37475m  120.6241m  699.9977m  153.5813m  667.0406m 
 -386.27475m  120.6507m  699.9977m  153.7227m  666.9257m 
 -386.17475m  120.6773m  699.9977m  153.8642m  666.8109m 
 -386.07475m  120.7039m  699.9977m  154.0056m  666.6961m 
 -385.97475m  120.7306m  699.9977m  154.1470m  666.5813m 
 -385.87475m  120.7572m  699.9977m  154.2884m  666.4665m 
 -385.77475m  120.7839m  699.9977m  154.4298m  666.3518m 
 -385.67475m  120.8106m  699.9977m  154.5712m  666.2371m 
 -385.57475m  120.8373m  699.9976m  154.7126m  666.1224m 
 -385.47475m  120.8641m  699.9976m  154.8540m  666.0077m 
 -385.37475m  120.8908m  699.9976m  154.9954m  665.8930m 
 -385.27475m  120.9176m  699.9976m  155.1368m  665.7784m 
 -385.17475m  120.9444m  699.9976m  155.2782m  665.6638m 
 -385.07475m  120.9713m  699.9976m  155.4196m  665.5492m 
 -384.97475m  120.9981m  699.9976m  155.5610m  665.4346m 
 -384.87475m  121.0250m  699.9975m  155.7025m  665.3201m 
 -384.77475m  121.0519m  699.9975m  155.8439m  665.2055m 
 -384.67475m  121.0788m  699.9975m  155.9853m  665.0910m 
 -384.57475m  121.1057m  699.9975m  156.1267m  664.9765m 
 -384.47475m  121.1327m  699.9975m  156.2681m  664.8621m 
 -384.37475m  121.1596m  699.9975m  156.4095m  664.7476m 
 -384.27475m  121.1866m  699.9975m  156.5509m  664.6332m 
 -384.17475m  121.2137m  699.9974m  156.6923m  664.5188m 
 -384.07475m  121.2407m  699.9974m  156.8337m  664.4044m 
 -383.97475m  121.2677m  699.9974m  156.9751m  664.2900m 
 -383.87475m  121.2948m  699.9974m  157.1165m  664.1757m 
 -383.77475m  121.3219m  699.9974m  157.2579m  664.0614m 
 -383.67475m  121.3491m  699.9974m  157.3993m  663.9471m 
 -383.57475m  121.3762m  699.9973m  157.5407m  663.8328m 
 -383.47475m  121.4034m  699.9973m  157.6821m  663.7186m 
 -383.37475m  121.4306m  699.9973m  157.8235m  663.6043m 
 -383.27475m  121.4578m  699.9973m  157.9650m  663.4901m 
 -383.17475m  121.4850m  699.9973m  158.1064m  663.3759m 
 -383.07475m  121.5122m  699.9973m  158.2478m  663.2617m 
 -382.97475m  121.5395m  699.9972m  158.3892m  663.1476m 
 -382.87475m  121.5668m  699.9972m  158.5306m  663.0335m 
 -382.77475m  121.5941m  699.9972m  158.6720m  662.9194m 
 -382.67475m  121.6215m  699.9972m  158.8134m  662.8053m 
 -382.57475m  121.6488m  699.9972m  158.9548m  662.6912m 
 -382.47475m  121.6762m  699.9972m  159.0962m  662.5772m 
 -382.37475m  121.7036m  699.9971m  159.2376m  662.4632m 
 -382.27475m  121.7310m  699.9971m  159.3790m  662.3492m 
 -382.17475m  121.7585m  699.9971m  159.5204m  662.2352m 
 -382.07475m  121.7859m  699.9971m  159.6618m  662.1212m 
 -381.97475m  121.8134m  699.9971m  159.8032m  662.0073m 
 -381.87475m  121.8409m  699.9971m  159.9446m  661.8934m 
 -381.77475m  121.8685m  699.9970m  160.0860m  661.7795m 
 -381.67475m  121.8960m  699.9970m  160.2274m  661.6656m 
 -381.57475m  121.9236m  699.9970m  160.3688m  661.5518m 
 -381.47475m  121.9512m  699.9970m  160.5102m  661.4380m 
 -381.37475m  121.9788m  699.9970m  160.6516m  661.3242m 
 -381.27475m  122.0065m  699.9970m  160.7930m  661.2104m 
 -381.17475m  122.0341m  699.9969m  160.9344m  661.0966m 
 -381.07475m  122.0618m  699.9969m  161.0758m  660.9829m 
 -380.97475m  122.0895m  699.9969m  161.2173m  660.8692m 
 -380.87475m  122.1172m  699.9969m  161.3587m  660.7555m 
 -380.77475m  122.1450m  699.9969m  161.5001m  660.6418m 
 -380.67475m  122.1728m  699.9969m  161.6415m  660.5281m 
 -380.57475m  122.2005m  699.9968m  161.7829m  660.4145m 
 -380.47475m  122.2284m  699.9968m  161.9243m  660.3009m 
 -380.37475m  122.2562m  699.9968m  162.0657m  660.1873m 
 -380.27475m  122.2841m  699.9968m  162.2071m  660.0738m 
 -380.17475m  122.3119m  699.9968m  162.3485m  659.9602m 
 -380.07475m  122.3398m  699.9967m  162.4899m  659.8467m 
 -379.97475m  122.3678m  699.9967m  162.6313m  659.7332m 
 -379.87475m  122.3957m  699.9967m  162.7727m  659.6197m 
 -379.77475m  122.4237m  699.9967m  162.9141m  659.5063m 
 -379.67475m  122.4517m  699.9967m  163.0555m  659.3928m 
 -379.57475m  122.4797m  699.9966m  163.1969m  659.2794m 
 -379.47475m  122.5077m  699.9966m  163.3383m  659.1660m 
 -379.37475m  122.5358m  699.9966m  163.4797m  659.0527m 
 -379.27475m  122.5638m  699.9966m  163.6211m  658.9393m 
 -379.17475m  122.5919m  699.9966m  163.7625m  658.8260m 
 -379.07475m  122.6201m  699.9965m  163.9039m  658.7127m 
 -378.97475m  122.6482m  699.9965m  164.0453m  658.5994m 
 -378.87475m  122.6764m  699.9965m  164.1867m  658.4862m 
 -378.77475m  122.7046m  699.9965m  164.3281m  658.3729m 
 -378.67475m  122.7328m  699.9965m  164.4695m  658.2597m 
 -378.57475m  122.7610m  699.9964m  164.6109m  658.1465m 
 -378.47475m  122.7893m  699.9964m  164.7523m  658.0334m 
 -378.37475m  122.8175m  699.9964m  164.8937m  657.9202m 
 -378.27475m  122.8458m  699.9964m  165.0351m  657.8071m 
 -378.17475m  122.8741m  699.9964m  165.1765m  657.6940m 
 -378.07475m  122.9025m  699.9963m  165.3179m  657.5809m 
 -377.97475m  122.9309m  699.9963m  165.4593m  657.4679m 
 -377.87475m  122.9592m  699.9963m  165.6007m  657.3548m 
 -377.77475m  122.9877m  699.9963m  165.7421m  657.2418m 
 -377.67475m  123.0161m  699.9962m  165.8835m  657.1288m 
 -377.57475m  123.0445m  699.9962m  166.0249m  657.0159m 
 -377.47475m  123.0730m  699.9962m  166.1663m  656.9029m 
 -377.37475m  123.1015m  699.9962m  166.3077m  656.7900m 
 -377.27475m  123.1300m  699.9962m  166.4491m  656.6771m 
 -377.17475m  123.1586m  699.9961m  166.5905m  656.5642m 
 -377.07475m  123.1871m  699.9961m  166.7319m  656.4514m 
 -376.97475m  123.2157m  699.9961m  166.8733m  656.3385m 
 -376.87475m  123.2443m  699.9961m  167.0147m  656.2257m 
 -376.77475m  123.2730m  699.9960m  167.1561m  656.1129m 
 -376.67475m  123.3016m  699.9960m  167.2975m  656.0002m 
 -376.57475m  123.3303m  699.9960m  167.4389m  655.8874m 
 -376.47475m  123.3590m  699.9960m  167.5803m  655.7747m 
 -376.37475m  123.3877m  699.9959m  167.7217m  655.6620m 
 -376.27475m  123.4165m  699.9959m  167.8631m  655.5493m 
 -376.17475m  123.4453m  699.9959m  168.0045m  655.4367m 
 -376.07475m  123.4740m  699.9959m  168.1459m  655.3241m 
 -375.97475m  123.5029m  699.9958m  168.2873m  655.2114m 
 -375.87475m  123.5317m  699.9958m  168.4287m  655.0989m 
 -375.77475m  123.5606m  699.9958m  168.5701m  654.9863m 
 -375.67475m  123.5894m  699.9958m  168.7114m  654.8738m 
 -375.57475m  123.6183m  699.9957m  168.8528m  654.7612m 
 -375.47475m  123.6473m  699.9957m  168.9942m  654.6487m 
 -375.37475m  123.6762m  699.9957m  169.1356m  654.5363m 
 -375.27475m  123.7052m  699.9957m  169.2770m  654.4238m 
 -375.17475m  123.7342m  699.9956m  169.4184m  654.3114m 
 -375.07475m  123.7632m  699.9956m  169.5598m  654.1990m 
 -374.97475m  123.7922m  699.9956m  169.7012m  654.0866m 
 -374.87475m  123.8213m  699.9956m  169.8426m  653.9742m 
 -374.77475m  123.8504m  699.9955m  169.9840m  653.8619m 
 -374.67475m  123.8795m  699.9955m  170.1254m  653.7496m 
 -374.57475m  123.9086m  699.9955m  170.2668m  653.6373m 
 -374.47475m  123.9378m  699.9955m  170.4082m  653.5250m 
 -374.37475m  123.9670m  699.9954m  170.5496m  653.4128m 
 -374.27475m  123.9962m  699.9954m  170.6910m  653.3006m 
 -374.17475m  124.0254m  699.9954m  170.8324m  653.1884m 
 -374.07475m  124.0546m  699.9954m  170.9738m  653.0762m 
 -373.97475m  124.0839m  699.9953m  171.1152m  652.9640m 
 -373.87475m  124.1132m  699.9953m  171.2566m  652.8519m 
 -373.77475m  124.1425m  699.9953m  171.3980m  652.7398m 
 -373.67475m  124.1718m  699.9952m  171.5393m  652.6277m 
 -373.57475m  124.2012m  699.9952m  171.6807m  652.5157m 
 -373.47475m  124.2306m  699.9952m  171.8221m  652.4036m 
 -373.37475m  124.2600m  699.9952m  171.9635m  652.2916m 
 -373.27475m  124.2894m  699.9951m  172.1049m  652.1796m 
 -373.17475m  124.3189m  699.9951m  172.2463m  652.0677m 
 -373.07475m  124.3483m  699.9951m  172.3877m  651.9557m 
 -372.97475m  124.3778m  699.9950m  172.5291m  651.8438m 
 -372.87475m  124.4074m  699.9950m  172.6705m  651.7319m 
 -372.77475m  124.4369m  699.9950m  172.8119m  651.6200m 
 -372.67475m  124.4665m  699.9949m  172.9533m  651.5081m 
 -372.57475m  124.4961m  699.9949m  173.0947m  651.3963m 
 -372.47475m  124.5257m  699.9949m  173.2361m  651.2845m 
 -372.37475m  124.5553m  699.9949m  173.3774m  651.1727m 
 -372.27475m  124.5850m  699.9948m  173.5188m  651.0610m 
 -372.17475m  124.6147m  699.9948m  173.6602m  650.9492m 
 -372.07475m  124.6444m  699.9948m  173.8016m  650.8375m 
 -371.97475m  124.6741m  699.9947m  173.9430m  650.7258m 
 -371.87475m  124.7038m  699.9947m  174.0844m  650.6142m 
 -371.77475m  124.7336m  699.9947m  174.2258m  650.5025m 
 -371.67475m  124.7634m  699.9946m  174.3672m  650.3909m 
 -371.57475m  124.7932m  699.9946m  174.5086m  650.2793m 
 -371.47475m  124.8231m  699.9946m  174.6500m  650.1677m 
 -371.37475m  124.8530m  699.9945m  174.7913m  650.0562m 
 -371.27475m  124.8828m  699.9945m  174.9327m  649.9446m 
 -371.17475m  124.9128m  699.9945m  175.0741m  649.8331m 
 -371.07475m  124.9427m  699.9944m  175.2155m  649.7216m 
 -370.97475m  124.9727m  699.9944m  175.3569m  649.6102m 
 -370.87475m  125.0027m  699.9944m  175.4983m  649.4987m 
 -370.77475m  125.0327m  699.9943m  175.6397m  649.3873m 
 -370.67475m  125.0627m  699.9943m  175.7811m  649.2759m 
 -370.57475m  125.0928m  699.9943m  175.9224m  649.1646m 
 -370.47475m  125.1228m  699.9942m  176.0638m  649.0532m 
 -370.37475m  125.1529m  699.9942m  176.2052m  648.9419m 
 -370.27475m  125.1831m  699.9942m  176.3466m  648.8306m 
 -370.17475m  125.2132m  699.9941m  176.4880m  648.7194m 
 -370.07475m  125.2434m  699.9941m  176.6294m  648.6081m 
 -369.97475m  125.2736m  699.9941m  176.7708m  648.4969m 
 -369.87475m  125.3038m  699.9940m  176.9122m  648.3857m 
 -369.77475m  125.3340m  699.9940m  177.0535m  648.2745m 
 -369.67475m  125.3643m  699.9940m  177.1949m  648.1634m 
 -369.57475m  125.3946m  699.9939m  177.3363m  648.0522m 
 -369.47475m  125.4249m  699.9939m  177.4777m  647.9411m 
 -369.37475m  125.4553m  699.9939m  177.6191m  647.8300m 
 -369.27475m  125.4856m  699.9938m  177.7605m  647.7190m 
 -369.17475m  125.5160m  699.9938m  177.9019m  647.6079m 
 -369.07475m  125.5464m  699.9937m  178.0432m  647.4969m 
 -368.97475m  125.5769m  699.9937m  178.1846m  647.3859m 
 -368.87475m  125.6073m  699.9937m  178.3260m  647.2750m 
 -368.77475m  125.6378m  699.9936m  178.4674m  647.1640m 
 -368.67475m  125.6683m  699.9936m  178.6088m  647.0531m 
 -368.57475m  125.6988m  699.9936m  178.7502m  646.9422m 
 -368.47475m  125.7294m  699.9935m  178.8915m  646.8314m 
 -368.37475m  125.7600m  699.9935m  179.0329m  646.7205m 
 -368.27475m  125.7906m  699.9934m  179.1743m  646.6097m 
 -368.17475m  125.8212m  699.9934m  179.3157m  646.4989m 
 -368.07475m  125.8518m  699.9934m  179.4571m  646.3881m 
 -367.97475m  125.8825m  699.9933m  179.5984m  646.2774m 
 -367.87475m  125.9132m  699.9933m  179.7398m  646.1667m 
 -367.77475m  125.9439m  699.9932m  179.8812m  646.0559m 
 -367.67475m  125.9747m  699.9932m  180.0226m  645.9453m 
 -367.57475m  126.0054m  699.9932m  180.1640m  645.8346m 
 -367.47475m  126.0362m  699.9931m  180.3054m  645.7240m 
 -367.37475m  126.0670m  699.9931m  180.4467m  645.6134m 
 -367.27475m  126.0979m  699.9930m  180.5881m  645.5028m 
 -367.17475m  126.1287m  699.9930m  180.7295m  645.3922m 
 -367.07475m  126.1596m  699.9930m  180.8709m  645.2817m 
 -366.97475m  126.1905m  699.9929m  181.0123m  645.1712m 
 -366.87475m  126.2215m  699.9929m  181.1536m  645.0607m 
 -366.77475m  126.2524m  699.9928m  181.2950m  644.9502m 
 -366.67475m  126.2834m  699.9928m  181.4364m  644.8398m 
 -366.57475m  126.3144m  699.9927m  181.5778m  644.7294m 
 -366.47475m  126.3454m  699.9927m  181.7191m  644.6190m 
 -366.37475m  126.3765m  699.9927m  181.8605m  644.5086m 
 -366.27475m  126.4076m  699.9926m  182.0019m  644.3983m 
 -366.17475m  126.4387m  699.9926m  182.1433m  644.2880m 
 -366.07475m  126.4698m  699.9925m  182.2847m  644.1777m 
 -365.97475m  126.5010m  699.9925m  182.4260m  644.0674m 
 -365.87475m  126.5321m  699.9924m  182.5674m  643.9572m 
 -365.77475m  126.5633m  699.9924m  182.7088m  643.8470m 
 -365.67475m  126.5946m  699.9923m  182.8502m  643.7368m 
 -365.57475m  126.6258m  699.9923m  182.9915m  643.6266m 
 -365.47475m  126.6571m  699.9923m  183.1329m  643.5164m 
 -365.37475m  126.6884m  699.9922m  183.2743m  643.4063m 
 -365.27475m  126.7197m  699.9922m  183.4157m  643.2962m 
 -365.17475m  126.7511m  699.9921m  183.5570m  643.1861m 
 -365.07475m  126.7824m  699.9921m  183.6984m  643.0761m 
 -364.97475m  126.8138m  699.9920m  183.8398m  642.9661m 
 -364.87475m  126.8452m  699.9920m  183.9812m  642.8561m 
 -364.77475m  126.8767m  699.9919m  184.1225m  642.7461m 
 -364.67475m  126.9082m  699.9919m  184.2639m  642.6361m 
 -364.57475m  126.9396m  699.9918m  184.4053m  642.5262m 
 -364.47475m  126.9712m  699.9918m  184.5467m  642.4163m 
 -364.37475m  127.0027m  699.9917m  184.6880m  642.3064m 
 -364.27475m  127.0343m  699.9917m  184.8294m  642.1966m 
 -364.17475m  127.0659m  699.9916m  184.9708m  642.0867m 
 -364.07475m  127.0975m  699.9916m  185.1121m  641.9769m 
 -363.97475m  127.1291m  699.9915m  185.2535m  641.8671m 
 -363.87475m  127.1608m  699.9915m  185.3949m  641.7574m 
 -363.77475m  127.1925m  699.9914m  185.5362m  641.6476m 
 -363.67475m  127.2242m  699.9914m  185.6776m  641.5379m 
 -363.57475m  127.2559m  699.9913m  185.8190m  641.4283m 
 -363.47475m  127.2877m  699.9913m  185.9604m  641.3186m 
 -363.37475m  127.3195m  699.9912m  186.1017m  641.2090m 
 -363.27475m  127.3513m  699.9912m  186.2431m  641.0994m 
 -363.17475m  127.3831m  699.9911m  186.3845m  640.9898m 
 -363.07475m  127.4150m  699.9911m  186.5258m  640.8802m 
 -362.97475m  127.4469m  699.9910m  186.6672m  640.7707m 
 -362.87475m  127.4788m  699.9910m  186.8086m  640.6612m 
 -362.77475m  127.5107m  699.9909m  186.9499m  640.5517m 
 -362.67475m  127.5427m  699.9908m  187.0913m  640.4422m 
 -362.57475m  127.5746m  699.9908m  187.2327m  640.3328m 
 -362.47475m  127.6067m  699.9907m  187.3740m  640.2234m 
 -362.37475m  127.6387m  699.9907m  187.5154m  640.1140m 
 -362.27475m  127.6707m  699.9906m  187.6568m  640.0046m 
 -362.17475m  127.7028m  699.9906m  187.7981m  639.8953m 
 -362.07475m  127.7349m  699.9905m  187.9395m  639.7860m 
 -361.97475m  127.7671m  699.9905m  188.0809m  639.6767m 
 -361.87475m  127.7992m  699.9904m  188.2222m  639.5674m 
 -361.77475m  127.8314m  699.9903m  188.3636m  639.4582m 
 -361.67475m  127.8636m  699.9903m  188.5050m  639.3489m 
 -361.57475m  127.8958m  699.9902m  188.6463m  639.2398m 
 -361.47475m  127.9281m  699.9902m  188.7877m  639.1306m 
 -361.37475m  127.9604m  699.9901m  188.9290m  639.0215m 
 -361.27475m  127.9927m  699.9901m  189.0704m  638.9123m 
 -361.17475m  128.0250m  699.9900m  189.2118m  638.8032m 
 -361.07475m  128.0574m  699.9899m  189.3531m  638.6942m 
 -360.97475m  128.0898m  699.9899m  189.4945m  638.5851m 
 -360.87475m  128.1222m  699.9898m  189.6358m  638.4761m 
 -360.77475m  128.1546m  699.9898m  189.7772m  638.3671m 
 -360.67475m  128.1871m  699.9897m  189.9186m  638.2582m 
 -360.57475m  128.2195m  699.9896m  190.0599m  638.1492m 
 -360.47475m  128.2520m  699.9896m  190.2013m  638.0403m 
 -360.37475m  128.2846m  699.9895m  190.3426m  637.9314m 
 -360.27475m  128.3171m  699.9894m  190.4840m  637.8226m 
 -360.17475m  128.3497m  699.9894m  190.6254m  637.7137m 
 -360.07475m  128.3823m  699.9893m  190.7667m  637.6049m 
[...]
  469.52525m  700.0000m  104.3243m  768.3332m   35.9910m 
  469.62525m  700.0000m  104.3101m  768.4605m   35.8496m 
  469.72525m  700.0000m  104.2960m  768.5878m   35.7082m 
  469.82525m  700.0000m  104.2819m  768.7151m   35.5667m 
  469.92525m  700.0000m  104.2678m  768.8425m   35.4253m 
  470.02525m  700.0000m  104.2537m  768.9698m   35.2839m 
  470.12525m  700.0000m  104.2396m  769.0971m   35.1425m 
  470.22525m  700.0000m  104.2255m  769.2245m   35.0010m 
  470.32525m  700.0000m  104.2115m  769.3518m   34.8596m 
  470.42525m  700.0000m  104.1974m  769.4792m   34.7182m 
  470.52525m  700.0000m  104.1834m  769.6066m   34.5768m 
  470.62525m  700.0000m  104.1694m  769.7340m   34.4354m 
  470.72525m  700.0000m  104.1553m  769.8614m   34.2939m 
  470.82525m  700.0000m  104.1413m  769.9888m   34.1525m 
  470.92525m  700.0000m  104.1273m  770.1162m   34.0111m 
  471.02525m  700.0000m  104.1133m  770.2436m   33.8697m 
  471.12525m  700.0000m  104.0994m  770.3711m   33.7283m 
  471.22525m  700.0000m  104.0854m  770.4985m   33.5868m 
  471.32525m  700.0000m  104.0714m  770.6260m   33.4454m 
  471.42525m  700.0000m  104.0575m  770.7535m   33.3040m 
  471.52525m  700.0000m  104.0435m  770.8809m   33.1626m 
  471.62525m  700.0000m  104.0296m  771.0084m   33.0212m 
  471.72525m  700.0000m  104.0157m  771.1359m   32.8797m 
  471.82525m  700.0000m  104.0018m  771.2634m   32.7383m 
  471.92525m  700.0000m  103.9879m  771.3909m   32.5969m 
  472.02525m  700.0000m  103.9740m  771.5185m   32.4555m 
  472.12525m  700.0000m  103.9601m  771.6460m   32.3140m 
  472.22525m  700.0000m  103.9462m  771.7736m   32.1726m 
  472.32525m  700.0000m  103.9323m  771.9011m   32.0312m 
  472.42525m  700.0000m  103.9185m  772.0287m   31.8898m 
  472.52525m  700.0000m  103.9046m  772.1563m   31.7484m 
  472.62525m  700.0000m  103.8908m  772.2839m   31.6069m 
  472.72525m  700.0000m  103.8770m  772.4115m   31.4655m 
  472.82525m  700.0000m  103.8632m  772.5391m   31.3241m 
  472.92525m  700.0000m  103.8494m  772.6667m   31.1827m 
  473.02525m  700.0000m  103.8356m  772.7943m   31.0413m 
  473.12525m  700.0000m  103.8218m  772.9219m   30.8998m 
  473.22525m  700.0000m  103.8080m  773.0496m   30.7584m 
  473.32525m  700.0000m  103.7943m  773.1773m   30.6170m 
  473.42525m  700.0000m  103.7805m  773.3049m   30.4756m 
  473.52525m  700.0000m  103.7668m  773.4326m   30.3341m 
  473.62525m  700.0000m  103.7530m  773.5603m   30.1927m 
  473.72525m  700.0000m  103.7393m  773.6880m   30.0513m 
  473.82525m  700.0000m  103.7256m  773.8157m   29.9099m 
  473.92525m  700.0000m  103.7119m  773.9434m   29.7685m 
  474.02525m  700.0000m  103.6982m  774.0711m   29.6270m 
  474.12525m  700.0000m  103.6845m  774.1989m   29.4856m 
  474.22525m  700.0000m  103.6708m  774.3266m   29.3442m 
  474.32525m  700.0000m  103.6572m  774.4544m   29.2028m 
  474.42525m  700.0000m  103.6435m  774.5821m   29.0614m 
  474.52525m  700.0000m  103.6298m  774.7099m   28.9199m 
  474.62525m  700.0000m  103.6162m  774.8377m   28.7785m 
  474.72525m  700.0000m  103.6026m  774.9655m   28.6371m 
  474.82525m  700.0000m  103.5890m  775.0933m   28.4957m 
  474.92525m  700.0000m  103.5754m  775.2211m   28.3542m 
  475.02525m  700.0000m  103.5618m  775.3489m   28.2128m 
  475.12525m  700.0000m  103.5482m  775.4767m   28.0714m 
  475.22525m  700.0000m  103.5346m  775.6046m   27.9300m 
  475.32525m  700.0000m  103.5210m  775.7324m   27.7886m 
  475.42525m  700.0000m  103.5075m  775.8603m   27.6471m 
  475.52525m  700.0000m  103.4939m  775.9882m   27.5057m 
  475.62525m  700.0000m  103.4804m  776.1160m   27.3643m 
  475.72525m  700.0000m  103.4668m  776.2439m   27.2229m 
  475.82525m  700.0000m  103.4533m  776.3718m   27.0815m 
  475.92525m  700.0000m  103.4398m  776.4997m   26.9400m 
  476.02525m  700.0000m  103.4263m  776.6277m   26.7986m 
  476.12525m  700.0000m  103.4128m  776.7556m   26.6572m 
  476.22525m  700.0000m  103.3993m  776.8835m   26.5158m 
  476.32525m  700.0000m  103.3858m  777.0115m   26.3744m 
  476.42525m  700.0000m  103.3724m  777.1394m   26.2329m 
  476.52525m  700.0000m  103.3589m  777.2674m   26.0915m 
  476.62525m  700.0000m  103.3455m  777.3954m   25.9501m 
  476.72525m  700.0000m  103.3320m  777.5234m   25.8087m 
  476.82525m  700.0000m  103.3186m  777.6513m   25.6672m 
  476.92525m  700.0000m  103.3052m  777.7794m   25.5258m 
  477.02525m  700.0000m  103.2918m  777.9074m   25.3844m 
  477.12525m  700.0000m  103.2784m  778.0354m   25.2430m 
  477.22525m  700.0000m  103.2650m  778.1634m   25.1016m 
  477.32525m  700.0000m  103.2516m  778.2915m   24.9601m 
  477.42525m  700.0000m  103.2382m  778.4195m   24.8187m 
  477.52525m  700.0000m  103.2249m  778.5476m   24.6773m 
  477.62525m  700.0000m  103.2115m  778.6756m   24.5359m 
  477.72525m  700.0000m  103.1982m  778.8037m   24.3945m 
  477.82525m  700.0000m  103.1849m  778.9318m   24.2530m 
  477.92525m  700.0000m  103.1715m  779.0599m   24.1116m 
  478.02525m  700.0000m  103.1582m  779.1880m   23.9702m 
  478.12525m  700.0000m  103.1449m  779.3161m   23.8288m 
  478.22525m  700.0000m  103.1316m  779.4443m   23.6873m 
  478.32525m  700.0000m  103.1183m  779.5724m   23.5459m 
  478.42525m  700.0000m  103.1051m  779.7005m   23.4045m 
  478.52525m  700.0000m  103.0918m  779.8287m   23.2631m 
  478.62525m  700.0000m  103.0785m  779.9569m   23.1217m 
  478.72525m  700.0000m  103.0653m  780.0850m   22.9802m 
  478.82525m  700.0000m  103.0521m  780.2132m   22.8388m 
  478.92525m  700.0000m  103.0388m  780.3414m   22.6974m 
  479.02525m  700.0000m  103.0256m  780.4696m   22.5560m 
  479.12525m  700.0000m  103.0124m  780.5978m   22.4146m 
  479.22525m  700.0000m  102.9992m  780.7260m   22.2731m 
  479.32525m  700.0000m  102.9860m  780.8543m   22.1317m 
  479.42525m  700.0000m  102.9728m  780.9825m   21.9903m 
  479.52525m  700.0000m  102.9596m  781.1108m   21.8489m 
  479.62525m  700.0000m  102.9465m  781.2390m   21.7074m 
  479.72525m  700.0000m  102.9333m  781.3673m   21.5660m 
  479.82525m  700.0000m  102.9202m  781.4956m   21.4246m 
  479.92525m  700.0000m  102.9070m  781.6238m   21.2832m 
  480.02525m  700.0000m  102.8939m  781.7521m   21.1418m 
  480.12525m  700.0000m  102.8808m  781.8804m   21.0003m 
  480.22525m  700.0000m  102.8677m  782.0087m   20.8589m 
  480.32525m  700.0000m  102.8546m  782.1371m   20.7175m 
  480.42525m  700.0000m  102.8415m  782.2654m   20.5761m 
  480.52525m  700.0000m  102.8284m  782.3937m   20.4347m 
  480.62525m  700.0000m  102.8153m  782.5221m   20.2932m 
  480.72525m  700.0000m  102.8023m  782.6504m   20.1518m 
  480.82525m  700.0000m  102.7892m  782.7788m   20.0104m 
  480.92525m  700.0000m  102.7762m  782.9072m   19.8690m 
  481.02525m  700.0000m  102.7631m  783.0356m   19.7276m 
  481.12525m  700.0000m  102.7501m  783.1640m   19.5861m 
  481.22525m  700.0000m  102.7371m  783.2924m   19.4447m 
  481.32525m  700.0000m  102.7241m  783.4208m   19.3033m 
  481.42525m  700.0000m  102.7111m  783.5492m   19.1619m 
  481.52525m  700.0000m  102.6981m  783.6776m   19.0204m 
  481.62525m  700.0000m  102.6851m  783.8061m   18.8790m 
  481.72525m  700.0000m  102.6721m  783.9345m   18.7376m 
  481.82525m  700.0000m  102.6592m  784.0630m   18.5962m 
  481.92525m  700.0000m  102.6462m  784.1915m   18.4548m 
  482.02525m  700.0000m  102.6333m  784.3199m   18.3133m 
  482.12525m  700.0000m  102.6203m  784.4484m   18.1719m 
  482.22525m  700.0000m  102.6074m  784.5769m   18.0305m 
  482.32525m  700.0000m  102.5945m  784.7054m   17.8891m 
  482.42525m  700.0000m  102.5816m  784.8339m   17.7477m 
  482.52525m  700.0000m  102.5687m  784.9625m   17.6062m 
  482.62525m  700.0000m  102.5558m  785.0910m   17.4648m 
  482.72525m  700.0000m  102.5429m  785.2195m   17.3234m 
  482.82525m  700.0000m  102.5301m  785.3481m   17.1820m 
  482.92525m  700.0000m  102.5172m  785.4766m   17.0405m 
  483.02525m  700.0000m  102.5043m  785.6052m   16.8991m 
  483.12525m  700.0000m  102.4915m  785.7338m   16.7577m 
  483.22525m  700.0000m  102.4787m  785.8624m   16.6163m 
  483.32525m  700.0000m  102.4658m  785.9910m   16.4749m 
  483.42525m  700.0000m  102.4530m  786.1196m   16.3334m 
  483.52525m  700.0000m  102.4402m  786.2482m   16.1920m 
  483.62525m  700.0000m  102.4274m  786.3768m   16.0506m 
  483.72525m  700.0000m  102.4146m  786.5054m   15.9092m 
  483.82525m  700.0000m  102.4018m  786.6341m   15.7678m 
  483.92525m  700.0000m  102.3891m  786.7627m   15.6263m 
  484.02525m  700.0000m  102.3763m  786.8914m   15.4849m 
  484.12525m  700.0000m  102.3635m  787.0200m   15.3435m 
  484.22525m  700.0000m  102.3508m  787.1487m   15.2021m 
  484.32525m  700.0000m  102.3380m  787.2774m   15.0606m 
  484.42525m  700.0000m  102.3253m  787.4061m   14.9192m 
  484.52525m  700.0000m  102.3126m  787.5348m   14.7778m 
  484.62525m  700.0000m  102.2999m  787.6635m   14.6364m 
  484.72525m  700.0000m  102.2872m  787.7922m   14.4950m 
  484.82525m  700.0000m  102.2745m  787.9209m   14.3535m 
  484.92525m  700.0000m  102.2618m  788.0497m   14.2121m 
  485.02525m  700.0000m  102.2491m  788.1784m   14.0707m 
  485.12525m  700.0000m  102.2365m  788.3072m   13.9293m 
  485.22525m  700.0000m  102.2238m  788.4359m   13.7879m 
  485.32525m  700.0000m  102.2112m  788.5647m   13.6464m 
  485.42525m  700.0000m  102.1985m  788.6935m   13.5050m 
  485.52525m  700.0000m  102.1859m  788.8223m   13.3636m 
  485.62525m  700.0000m  102.1733m  788.9511m   13.2222m 
  485.72525m  700.0000m  102.1606m  789.0799m   13.0807m 
  485.82525m  700.0000m  102.1480m  789.2087m   12.9393m 
  485.92525m  700.0000m  102.1354m  789.3375m   12.7979m 
  486.02525m  700.0000m  102.1229m  789.4664m   12.6565m 
  486.12525m  700.0000m  102.1103m  789.5952m   12.5151m 
  486.22525m  700.0000m  102.0977m  789.7240m   12.3736m 
  486.32525m  700.0000m  102.0851m  789.8529m   12.2322m 
  486.42525m  700.0000m  102.0726m  789.9818m   12.0908m 
  486.52525m  700.0000m  102.0600m  790.1107m   11.9494m 
  486.62525m  700.0000m  102.0475m  790.2395m   11.8080m 
  486.72525m  700.0000m  102.0350m  790.3684m   11.6665m 
  486.82525m  700.0000m  102.0225m  790.4973m   11.5251m 
  486.92525m  700.0000m  102.0100m  790.6262m   11.3837m 
  487.02525m  700.0000m  101.9975m  790.7552m   11.2423m 
  487.12525m  700.0000m  101.9850m  790.8841m   11.1009m 
  487.22525m  700.0000m  101.9725m  791.0130m   10.9594m 
  487.32525m  700.0000m  101.9600m  791.1420m   10.8180m 
  487.42525m  700.0000m  101.9475m  791.2709m   10.6766m 
  487.52525m  700.0000m  101.9351m  791.3999m   10.5352m 
  487.62525m  700.0000m  101.9226m  791.5289m   10.3937m 
  487.72525m  700.0000m  101.9102m  791.6579m   10.2523m 
  487.82525m  700.0000m  101.8978m  791.7868m   10.1109m 
  487.92525m  700.0000m  101.8853m  791.9158m    9.9695m 
  488.02525m  700.0000m  101.8729m  792.0449m    9.8281m 
  488.12525m  700.0000m  101.8605m  792.1739m    9.6866m 
  488.22525m  700.0000m  101.8481m  792.3029m    9.5452m 
  488.32525m  700.0000m  101.8357m  792.4319m    9.4038m 
  488.42525m  700.0000m  101.8233m  792.5610m    9.2624m 
  488.52525m  700.0000m  101.8110m  792.6900m    9.1210m 
  488.62525m  700.0000m  101.7986m  792.8191m    8.9795m 
  488.72525m  700.0000m  101.7863m  792.9481m    8.8381m 
  488.82525m  700.0000m  101.7739m  793.0772m    8.6967m 
  488.92525m  700.0000m  101.7616m  793.2063m    8.5553m 
  489.02525m  700.0000m  101.7492m  793.3354m    8.4138m 
  489.12525m  700.0000m  101.7369m  793.4645m    8.2724m 
  489.22525m  700.0000m  101.7246m  793.5936m    8.1310m 
  489.32525m  700.0000m  101.7123m  793.7227m    7.9896m 
  489.42525m  700.0000m  101.7000m  793.8518m    7.8482m 
  489.52525m  700.0000m  101.6877m  793.9810m    7.7067m 
  489.62525m  700.0000m  101.6755m  794.1101m    7.5653m 
  489.72525m  700.0000m  101.6632m  794.2393m    7.4239m 
  489.82525m  700.0000m  101.6509m  794.3684m    7.2825m 
  489.92525m  700.0000m  101.6387m  794.4976m    7.1411m 
  490.02525m  700.0000m  101.6264m  794.6268m    6.9996m 
  490.12525m  700.0000m  101.6142m  794.7560m    6.8582m 
  490.22525m  700.0000m  101.6020m  794.8852m    6.7168m 
  490.32525m  700.0000m  101.5897m  795.0144m    6.5754m 
  490.42525m  700.0000m  101.5775m  795.1436m    6.4339m 
  490.52525m  700.0000m  101.5653m  795.2728m    6.2925m 
  490.62525m  700.0000m  101.5531m  795.4020m    6.1511m 
  490.72525m  700.0000m  101.5410m  795.5313m    6.0097m 
  490.82525m  700.0000m  101.5288m  795.6605m    5.8683m 
  490.92525m  700.0000m  101.5166m  795.7898m    5.7268m 
  491.02525m  700.0000m  101.5045m  795.9190m    5.5854m 
  491.12525m  700.0000m  101.4923m  796.0483m    5.4440m 
  491.22525m  700.0000m  101.4802m  796.1776m    5.3026m 
  491.32525m  700.0000m  101.4680m  796.3069m    5.1612m 
  491.42525m  700.0000m  101.4559m  796.4362m    5.0197m 
  491.52525m  700.0000m  101.4438m  796.5655m    4.8783m 
  491.62525m  700.0000m  101.4317m  796.6948m    4.7369m 
  491.72525m  700.0000m  101.4196m  796.8241m    4.5955m 
  491.82525m  700.0000m  101.4075m  796.9534m    4.4540m 
  491.92525m  700.0000m  101.3954m  797.0828m    4.3126m 
  492.02525m  700.0000m  101.3833m  797.2121m    4.1712m 
  492.12525m  700.0000m  101.3712m  797.3415m    4.0298m 
  492.22525m  700.0000m  101.3592m  797.4708m    3.8884m 
  492.32525m  700.0000m  101.3471m  797.6002m    3.7469m 
  492.42525m  700.0000m  101.3351m  797.7296m    3.6055m 
  492.52525m  700.0000m  101.3231m  797.8590m    3.4641m 
  492.62525m  700.0000m  101.3110m  797.9883m    3.3227m 
  492.72525m  700.0000m  101.2990m  798.1178m    3.1813m 
  492.82525m  700.0000m  101.2870m  798.2472m    3.0398m 
  492.92525m  700.0000m  101.2750m  798.3766m    2.8984m 
  493.02525m  700.0000m  101.2630m  798.5060m    2.7570m 
  493.12525m  700.0000m  101.2510m  798.6354m    2.6156m 
  493.22525m  700.0000m  101.2391m  798.7649m    2.4742m 
  493.32525m  700.0000m  101.2271m  798.8943m    2.3327m 
  493.42525m  700.0000m  101.2151m  799.0238m    2.1913m 
  493.52525m  700.0000m  101.2032m  799.1533m    2.0499m 
  493.62525m  700.0000m  101.1912m  799.2828m    1.9085m 
  493.72525m  700.0000m  101.1793m  799.4122m    1.7670m 
  493.82525m  700.0000m  101.1674m  799.5417m    1.6256m 
  493.92525m  700.0000m  101.1554m  799.6712m    1.4842m 
  494.02525m  700.0000m  101.1435m  799.8007m    1.3428m 
  494.12525m  700.0000m  101.1316m  799.9303m    1.2014m 
  494.22525m  700.0000m  101.1197m  800.0598m    1.0599m 
  494.32525m  700.0000m  101.1078m  800.1893m  918.5160u 
  494.42525m  700.0000m  101.0960m  800.3189m  777.0947u 
  494.52525m  700.0000m  101.0841m  800.4484m  635.6733u 
  494.62525m  700.0000m  101.0722m  800.5780m  494.2520u 
  494.72525m  700.0000m  101.0604m  800.7075m  352.8307u 
  494.82525m  700.0000m  101.0485m  800.8371m  211.4093u 
  494.92525m  700.0000m  101.0367m  800.9667m   69.9880u 
y
 max_1= 226.6307m    at=-232.1747m
             from=-494.9747m    to= 494.9253m
 max_2= 226.6307m    at= 232.2253m
             from=-494.9747m    to= 494.9253m
 snm= 160.2521m
1****** HSPICE -- Q-2020.03-SP2-2 linux64 (Nov  1 2020) ******                  
 ******  
 .title noise margin in read operation

 ****** operating point information tnom=  25.000 temp=  25.000 ******
 ****** operating point status is all       simulation time is     0.     
    node    =voltage      node    =voltage      node    =voltage

 +0:bl      = 700.0000m 0:blb     = 700.0000m 0:gl      = 375.8337m
 +0:gr      = 375.8337m 0:q       = 375.8337m 0:qb      = 375.8337m
 +0:u       =   0.      0:v1      = 531.5091m 0:v2      = 531.5091m
 +0:vdd     = 700.0000m 0:wl      = 700.0000m 0:x       = 575.6692m


 **** voltage sources

 subckt                                   
 element  0:vu       0:vvdd     0:vwl     
  volts      0.       700.0000m  700.0000m
  current    0.      -645.8444n  -39.2182f
  power      0.       452.0911n   27.4527f

     total voltage source power dissipation=  452.0911n       watts



 **** voltage-controlled voltage sources


 subckt                                              
 element  0:eli      0:ev1      0:eri      0:ev2     
  volts    375.8337m  531.5091m  375.8337m  531.5091m
  current   13.2866f    0.        13.2866f    0.     





 **** mosfets


 subckt                                                                    
 element  0:mpr      0:mnr      0:mpl      0:mnl      0:mnpr     0:mnpl    
 model    0:pmos_sra 0:nmos_sra 0:pmos_sra 0:nmos_sra 0:nmos_sra 0:nmos_sra
 region   Subth      Subth      Subth      Subth      Subth      Subth     
  id      -322.9222n  387.4500n -322.9222n  387.4500n   64.5278n   64.5278n
  ibs        0.         0.         0.         0.         0.         0.     
  ibd        0.         0.         0.         0.         0.         0.     
  vgs     -324.1663m  375.8337m -324.1663m  375.8337m  324.1663m  324.1663m
  vds     -324.1663m  375.8337m -324.1663m  375.8337m  324.1663m  324.1663m
  vbs     -124.3308m  575.6692m -124.3308m  575.6692m  199.8354m  199.8354m
  vth     -329.8929m  410.5237m -329.8929m  410.5237m  410.7583m  410.7583m
  vdsat    -94.8962m   80.1003m  -94.8962m   80.1003m   72.8428m   72.8428m
  vod        5.7266m  -34.6900m    5.7266m  -34.6900m  -86.5920m  -86.5920m
  beta       1.1164m    1.4833m    1.1164m    1.4833m    1.4833m    1.4833m
  gam eff    0.         0.         0.         0.         0.         0.     
  gm         8.7426u   11.9884u    8.7426u   11.9884u    2.3535u    2.3535u
  gds      176.4078n  172.9069n  176.4078n  172.9069n   35.2020n   35.2020n
  gmb        3.3945p    7.8903p    3.3945p    7.8903p  816.5023f  816.5023f
  cdtot      9.5413a    9.5700a    9.5413a    9.5700a    9.5695a    9.5695a
  cgtot     27.7572a   24.0938a   27.7572a   24.0938a   20.3211a   20.3211a
  cstot     15.1841a   12.9093a   15.1841a   12.9093a   10.3752a   10.3752a
  cbtot      0.         0.         0.         0.         0.         0.     
  cgs       18.2874a   14.5378a   18.2874a   14.5378a   10.7557a   10.7557a
  cgd        9.4698a    9.5560a    9.4698a    9.5560a    9.5654a    9.5654a




          ***** job concluded
 ******  
 .title noise margin in read operation

 ****** job statistics summary tnom=  25.000 temp=  25.000 ******
  
 ******  Machine Information  ******
 CPU:
 model name	: AMD EPYC 7713 64-Core Processor
 cpu MHz	: 1500.000
  
 OS:
 Linux version 3.10.0-1160.88.1.el7.x86_64 (mockbuild@kbuilder.bsys.centos.org) (gcc version 4.8.5 20150623 (Red Hat 4.8.5-44) (GCC) ) #1 SMP Tue Mar 7 15:41:52 UTC 2023


  ******  HSPICE Threads Information  ******

  Command Line Threads Count :     1
  Available CPU Count        :   256
  Actual Threads Count       :     1


  ******  Circuit Statistics  ******
  # nodes       =      13 # elements   =      15
  # resistors   =       0 # capacitors =       2 # inductors   =       0
  # mutual_inds =       0 # vccs       =       0 # vcvs        =       4
  # cccs        =       0 # ccvs       =       0 # volt_srcs   =       3
  # curr_srcs   =       0 # diodes     =       0 # bjts        =       0
  # jfets       =       0 # mosfets    =       6 # U elements  =       0
  # T elements  =       0 # W elements =       0 # B elements  =       0
  # S elements  =       0 # P elements =       0 # va device   =       0
  # vector_srcs =       0 # N elements =       0


  ******  Runtime Statistics (seconds)  ******

  analysis           time    # points   tot. iter  conv.iter
  op point           0.02           1           9
  dc sweep           0.85        9900       29710
  readin             0.01
  errchk             0.00
  setup              0.00
  output             0.00


           peak memory used        406.02 megabytes
           total cpu time            0.96 seconds
           total elapsed time        1.12 seconds
           job started at     13:54:00 03/23/2025
           job ended   at     13:54:01 03/23/2025
           job total runtime         1.12 seconds


 lic: Release hspice token(s) 
 lic: total license checkout elapse time:        0.15(s)
