 ****** HSPICE -- Q-2020.03-SP2-2 linux64 (Nov  1 2020) ******                  
  Copyright (c) 1986 - 2025 by Synopsys, Inc. All Rights Reserved.              
  This software and the associated documentation are proprietary
  to Synopsys, Inc. This software may only be used in accordance
  with the terms and conditions of a written license agreement with
  Synopsys, Inc. All other use, reproduction, or distribution of
  this software is strictly prohibited.
  Input File: SRAM_WNM_test.sp                                                  
  Command line options: /RAID2/cad/synopsys/hspice/2020.03-sp2-2/hspice/linux64/hspice -i SRAM_WNM_test.sp -o SRAM_WNM_test.lis
  Start time: Mon Mar 24 15:48:09 2025
 lic:  
 lic: FLEXlm: SDK_12.6 
 lic: USER:   es25MCS042           HOSTNAME: ee28 
 lic: HOSTID: "d85ed3efc19a"       PID:      44048 
 lic: Using FLEXlm license file: 
 lic: 26585@lshc 
 lic: Checkout 1 hspice 
 lic: License/Maintenance for hspice will expire on 14-may-2025/2024.09 
 lic: 176(in_use)/1100(total) FLOATING license(s) on SERVER 26585@lshc 
 lic:   
  
      
             
 Warning:'Floating bulk' occurs 1 times
 Summary of floating bulk:
 -----------------------
 |Node      |Device    |
 |----------+----------|
 |x         |mpr       |
 -----------------------
              
 *****************************************************************
 ******  option summary
 ******
 runlvl  = 3         bypass  = 2.0000    
 ******
 .title noise margin in write operation

 ****** dc transfer curves tnom=  25.000 temp=  25.000 ******
x

 volt         voltage    voltage    voltage    voltage   
             q          qb         gl         gr         
 -494.97475m  105.5790m  471.3055m -228.6945m  805.5790m 
 -494.87475m  105.5899m  471.2667m -228.5918m  805.4485m 
 -494.77475m  105.6008m  471.2280m -228.4892m  805.3179m 
 -494.67475m  105.6117m  471.1892m -228.3865m  805.1874m 
 -494.57475m  105.6226m  471.1505m -228.2838m  805.0569m 
 -494.47475m  105.6335m  471.1117m -228.1812m  804.9264m 
 -494.37475m  105.6445m  471.0729m -228.0786m  804.7959m 
 -494.27475m  105.6554m  471.0340m -227.9760m  804.6654m 
 -494.17475m  105.6663m  470.9952m -227.8734m  804.5350m 
 -494.07475m  105.6773m  470.9563m -227.7709m  804.4045m 
 -493.97475m  105.6883m  470.9175m -227.6683m  804.2740m 
 -493.87475m  105.6992m  470.8786m -227.5658m  804.1436m 
 -493.77475m  105.7102m  470.8396m -227.4633m  804.0131m 
 -493.67475m  105.7212m  470.8007m -227.3608m  803.8827m 
 -493.57475m  105.7322m  470.7617m -227.2584m  803.7523m 
 -493.47475m  105.7432m  470.7228m -227.1559m  803.6219m 
 -493.37475m  105.7542m  470.6838m -227.0535m  803.4915m 
 -493.27475m  105.7652m  470.6448m -226.9511m  803.3610m 
 -493.17475m  105.7762m  470.6057m -226.8487m  803.2307m 
 -493.07475m  105.7873m  470.5667m -226.7463m  803.1003m 
 -492.97475m  105.7983m  470.5276m -226.6439m  802.9699m 
 -492.87475m  105.8094m  470.4886m -226.5416m  802.8395m 
 -492.77475m  105.8204m  470.4495m -226.4393m  802.7091m 
 -492.67475m  105.8315m  470.4103m -226.3370m  802.5788m 
 -492.57475m  105.8425m  470.3712m -226.2347m  802.4484m 
 -492.47475m  105.8536m  470.3321m -226.1324m  802.3181m 
 -492.37475m  105.8647m  470.2929m -226.0302m  802.1878m 
 -492.27475m  105.8758m  470.2537m -225.9279m  802.0574m 
 -492.17475m  105.8869m  470.2145m -225.8257m  801.9271m 
 -492.07475m  105.8980m  470.1753m -225.7235m  801.7968m 
 -491.97475m  105.9091m  470.1360m -225.6214m  801.6665m 
 -491.87475m  105.9203m  470.0967m -225.5192m  801.5362m 
 -491.77475m  105.9314m  470.0575m -225.4171m  801.4059m 
 -491.67475m  105.9426m  470.0182m -225.3149m  801.2756m 
 -491.57475m  105.9537m  469.9788m -225.2128m  801.1454m 
 -491.47475m  105.9649m  469.9395m -225.1107m  801.0151m 
 -491.37475m  105.9760m  469.9001m -225.0087m  800.8849m 
 -491.27475m  105.9872m  469.8608m -224.9066m  800.7546m 
 -491.17475m  105.9984m  469.8214m -224.8046m  800.6244m 
 -491.07475m  106.0096m  469.7820m -224.7026m  800.4941m 
 -490.97475m  106.0208m  469.7425m -224.6006m  800.3639m 
 -490.87475m  106.0320m  469.7031m -224.4986m  800.2337m 
 -490.77475m  106.0432m  469.6636m -224.3967m  800.1035m 
 -490.67475m  106.0544m  469.6241m -224.2947m  799.9733m 
 -490.57475m  106.0656m  469.5846m -224.1928m  799.8431m 
 -490.47475m  106.0769m  469.5451m -224.0909m  799.7129m 
 -490.37475m  106.0881m  469.5056m -223.9890m  799.5828m 
 -490.27475m  106.0994m  469.4660m -223.8872m  799.4526m 
 -490.17475m  106.1107m  469.4265m -223.7853m  799.3224m 
 -490.07475m  106.1219m  469.3869m -223.6835m  799.1923m 
 -489.97475m  106.1332m  469.3472m -223.5817m  799.0621m 
 -489.87475m  106.1445m  469.3076m -223.4799m  798.9320m 
 -489.77475m  106.1558m  469.2680m -223.3781m  798.8019m 
 -489.67475m  106.1671m  469.2283m -223.2764m  798.6718m 
 -489.57475m  106.1784m  469.1886m -223.1746m  798.5416m 
 -489.47475m  106.1897m  469.1489m -223.0729m  798.4115m 
 -489.37475m  106.2010m  469.1092m -222.9712m  798.2814m 
 -489.27475m  106.2124m  469.0694m -222.8695m  798.1514m 
 -489.17475m  106.2237m  469.0297m -222.7679m  798.0213m 
 -489.07475m  106.2351m  468.9899m -222.6662m  797.8912m 
 -488.97475m  106.2464m  468.9501m -222.5646m  797.7612m 
 -488.87475m  106.2578m  468.9103m -222.4630m  797.6311m 
 -488.77475m  106.2692m  468.8705m -222.3614m  797.5011m 
 -488.67475m  106.2806m  468.8306m -222.2599m  797.3710m 
 -488.57475m  106.2920m  468.7907m -222.1583m  797.2410m 
 -488.47475m  106.3034m  468.7508m -222.0568m  797.1110m 
 -488.37475m  106.3148m  468.7109m -221.9553m  796.9810m 
 -488.27475m  106.3262m  468.6710m -221.8538m  796.8510m 
 -488.17475m  106.3376m  468.6311m -221.7523m  796.7210m 
 -488.07475m  106.3490m  468.5911m -221.6508m  796.5910m 
 -487.97475m  106.3605m  468.5511m -221.5494m  796.4610m 
 -487.87475m  106.3719m  468.5111m -221.4480m  796.3310m 
 -487.77475m  106.3834m  468.4711m -221.3466m  796.2011m 
 -487.67475m  106.3949m  468.4311m -221.2452m  796.0711m 
 -487.57475m  106.4063m  468.3910m -221.1438m  795.9411m 
 -487.47475m  106.4178m  468.3509m -221.0425m  795.8112m 
 -487.37475m  106.4293m  468.3108m -220.9412m  795.6813m 
 -487.27475m  106.4408m  468.2707m -220.8398m  795.5514m 
 -487.17475m  106.4523m  468.2306m -220.7386m  795.4214m 
 -487.07475m  106.4638m  468.1904m -220.6373m  795.2915m 
 -486.97475m  106.4753m  468.1503m -220.5360m  795.1616m 
 -486.87475m  106.4869m  468.1101m -220.4348m  795.0318m 
 -486.77475m  106.4984m  468.0699m -220.3336m  794.9019m 
 -486.67475m  106.5100m  468.0296m -220.2324m  794.7720m 
 -486.57475m  106.5215m  467.9894m -220.1312m  794.6421m 
 -486.47475m  106.5331m  467.9491m -220.0300m  794.5123m 
 -486.37475m  106.5447m  467.9089m -219.9289m  794.3824m 
 -486.27475m  106.5562m  467.8686m -219.8278m  794.2526m 
 -486.17475m  106.5678m  467.8282m -219.7267m  794.1228m 
 -486.07475m  106.5794m  467.7879m -219.6256m  793.9929m 
 -485.97475m  106.5910m  467.7475m -219.5245m  793.8631m 
 -485.87475m  106.6027m  467.7072m -219.4235m  793.7333m 
 -485.77475m  106.6143m  467.6668m -219.3225m  793.6035m 
 -485.67475m  106.6259m  467.6264m -219.2215m  793.4737m 
 -485.57475m  106.6376m  467.5859m -219.1205m  793.3439m 
 -485.47475m  106.6492m  467.5455m -219.0195m  793.2142m 
 -485.37475m  106.6609m  467.5050m -218.9185m  793.0844m 
 -485.27475m  106.6725m  467.4645m -218.8176m  792.9547m 
 -485.17475m  106.6842m  467.4240m -218.7167m  792.8249m 
 -485.07475m  106.6959m  467.3835m -218.6158m  792.6952m 
 -484.97475m  106.7076m  467.3429m -218.5149m  792.5654m 
 -484.87475m  106.7193m  467.3024m -218.4141m  792.4357m 
 -484.77475m  106.7310m  467.2618m -218.3132m  792.3060m 
 -484.67475m  106.7427m  467.2212m -218.2124m  792.1763m 
 -484.57475m  106.7544m  467.1806m -218.1116m  792.0466m 
 -484.47475m  106.7662m  467.1399m -218.0108m  791.9169m 
 -484.37475m  106.7779m  467.0993m -217.9100m  791.7872m 
 -484.27475m  106.7896m  467.0586m -217.8093m  791.6576m 
 -484.17475m  106.8014m  467.0179m -217.7086m  791.5279m 
 -484.07475m  106.8132m  466.9772m -217.6079m  791.3982m 
 -483.97475m  106.8249m  466.9365m -217.5072m  791.2686m 
 -483.87475m  106.8367m  466.8957m -217.4065m  791.1390m 
 -483.77475m  106.8485m  466.8549m -217.3059m  791.0093m 
 -483.67475m  106.8603m  466.8142m -217.2052m  790.8797m 
 -483.57475m  106.8721m  466.7733m -217.1046m  790.7501m 
 -483.47475m  106.8839m  466.7325m -217.0040m  790.6205m 
 -483.37475m  106.8958m  466.6917m -216.9034m  790.4909m 
 -483.27475m  106.9076m  466.6508m -216.8029m  790.3613m 
 -483.17475m  106.9195m  466.6099m -216.7024m  790.2317m 
 -483.07475m  106.9313m  466.5690m -216.6018m  790.1022m 
 -482.97475m  106.9432m  466.5281m -216.5013m  789.9726m 
 -482.87475m  106.9550m  466.4872m -216.4009m  789.8430m 
 -482.77475m  106.9669m  466.4462m -216.3004m  789.7135m 
 -482.67475m  106.9788m  466.4052m -216.2000m  789.5840m 
 -482.57475m  106.9907m  466.3642m -216.0995m  789.4544m 
 -482.47475m  107.0026m  466.3232m -215.9991m  789.3249m 
 -482.37475m  107.0145m  466.2822m -215.8987m  789.1954m 
 -482.27475m  107.0264m  466.2411m -215.7984m  789.0659m 
 -482.17475m  107.0384m  466.2000m -215.6980m  788.9364m 
 -482.07475m  107.0503m  466.1589m -215.5977m  788.8069m 
 -481.97475m  107.0622m  466.1178m -215.4974m  788.6775m 
 -481.87475m  107.0742m  466.0767m -215.3971m  788.5480m 
 -481.77475m  107.0862m  466.0356m -215.2968m  788.4185m 
 -481.67475m  107.0981m  465.9944m -215.1966m  788.2891m 
 -481.57475m  107.1101m  465.9532m -215.0963m  788.1597m 
 -481.47475m  107.1221m  465.9120m -214.9961m  788.0302m 
 -481.37475m  107.1341m  465.8708m -214.8959m  787.9008m 
 -481.27475m  107.1461m  465.8295m -214.7958m  787.7714m 
 -481.17475m  107.1581m  465.7882m -214.6956m  787.6420m 
 -481.07475m  107.1702m  465.7470m -214.5955m  787.5126m 
 -480.97475m  107.1822m  465.7057m -214.4954m  787.3832m 
 -480.87475m  107.1942m  465.6643m -214.3953m  787.2538m 
 -480.77475m  107.2063m  465.6230m -214.2952m  787.1244m 
 -480.67475m  107.2183m  465.5816m -214.1951m  786.9951m 
 -480.57475m  107.2304m  465.5403m -214.0951m  786.8657m 
 -480.47475m  107.2425m  465.4989m -213.9950m  786.7364m 
 -480.37475m  107.2546m  465.4574m -213.8950m  786.6071m 
 -480.27475m  107.2667m  465.4160m -213.7951m  786.4777m 
 -480.17475m  107.2788m  465.3745m -213.6951m  786.3484m 
 -480.07475m  107.2909m  465.3331m -213.5952m  786.2191m 
 -479.97475m  107.3030m  465.2916m -213.4952m  786.0898m 
 -479.87475m  107.3151m  465.2501m -213.3953m  785.9605m 
 -479.77475m  107.3273m  465.2085m -213.2954m  785.8312m 
 -479.67475m  107.3394m  465.1670m -213.1956m  785.7019m 
 -479.57475m  107.3516m  465.1254m -213.0957m  785.5727m 
 -479.47475m  107.3637m  465.0838m -212.9959m  785.4434m 
 -479.37475m  107.3759m  465.0422m -212.8961m  785.3142m 
 -479.27475m  107.3881m  465.0006m -212.7963m  785.1849m 
 -479.17475m  107.4003m  464.9589m -212.6965m  785.0557m 
 -479.07475m  107.4125m  464.9172m -212.5968m  784.9265m 
 -478.97475m  107.4247m  464.8756m -212.4970m  784.7973m 
 -478.87475m  107.4369m  464.8339m -212.3973m  784.6681m 
 -478.77475m  107.4491m  464.7921m -212.2976m  784.5389m 
 -478.67475m  107.4614m  464.7504m -212.1979m  784.4097m 
 -478.57475m  107.4736m  464.7086m -212.0983m  784.2805m 
 -478.47475m  107.4859m  464.6668m -211.9986m  784.1514m 
 -478.37475m  107.4981m  464.6250m -211.8990m  784.0222m 
 -478.27475m  107.5104m  464.5832m -211.7994m  783.8930m 
 -478.17475m  107.5227m  464.5414m -211.6998m  783.7639m 
 -478.07475m  107.5350m  464.4995m -211.6003m  783.6348m 
 -477.97475m  107.5473m  464.4576m -211.5007m  783.5056m 
 -477.87475m  107.5596m  464.4157m -211.4012m  783.3765m 
 -477.77475m  107.5719m  464.3738m -211.3017m  783.2474m 
 -477.67475m  107.5842m  464.3319m -211.2022m  783.1183m 
 -477.57475m  107.5966m  464.2899m -211.1028m  782.9892m 
 -477.47475m  107.6089m  464.2479m -211.0033m  782.8602m 
 -477.37475m  107.6213m  464.2059m -210.9039m  782.7311m 
 -477.27475m  107.6336m  464.1639m -210.8045m  782.6020m 
 -477.17475m  107.6460m  464.1219m -210.7051m  782.4730m 
 -477.07475m  107.6584m  464.0798m -210.6058m  782.3439m 
 -476.97475m  107.6708m  464.0377m -210.5064m  782.2149m 
 -476.87475m  107.6832m  463.9956m -210.4071m  782.0859m 
 -476.77475m  107.6956m  463.9535m -210.3078m  781.9569m 
 -476.67475m  107.7080m  463.9114m -210.2085m  781.8279m 
 -476.57475m  107.7204m  463.8692m -210.1092m  781.6989m 
 -476.47475m  107.7328m  463.8271m -210.0100m  781.5699m 
 -476.37475m  107.7453m  463.7849m -209.9107m  781.4409m 
 -476.27475m  107.7577m  463.7427m -209.8115m  781.3119m 
 -476.17475m  107.7702m  463.7004m -209.7123m  781.1830m 
 -476.07475m  107.7827m  463.6582m -209.6132m  781.0540m 
 -475.97475m  107.7951m  463.6159m -209.5140m  780.9251m 
 -475.87475m  107.8076m  463.5736m -209.4149m  780.7962m 
 -475.77475m  107.8201m  463.5313m -209.3158m  780.6672m 
 -475.67475m  107.8326m  463.4890m -209.2167m  780.5383m 
 -475.57475m  107.8452m  463.4466m -209.1176m  780.4094m 
 -475.47475m  107.8577m  463.4043m -209.0186m  780.2805m 
 -475.37475m  107.8702m  463.3619m -208.9195m  780.1516m 
 -475.27475m  107.8828m  463.3195m -208.8205m  780.0227m 
 -475.17475m  107.8953m  463.2771m -208.7215m  779.8939m 
 -475.07475m  107.9079m  463.2346m -208.6225m  779.7650m 
 -474.97475m  107.9204m  463.1921m -208.5236m  779.6362m 
 -474.87475m  107.9330m  463.1497m -208.4246m  779.5073m 
 -474.77475m  107.9456m  463.1072m -208.3257m  779.3785m 
 -474.67475m  107.9582m  463.0646m -208.2268m  779.2497m 
 -474.57475m  107.9708m  463.0221m -208.1280m  779.1209m 
 -474.47475m  107.9834m  462.9795m -208.0291m  778.9921m 
 -474.37475m  107.9961m  462.9369m -207.9303m  778.8633m 
 -474.27475m  108.0087m  462.8943m -207.8314m  778.7345m 
 -474.17475m  108.0213m  462.8517m -207.7326m  778.6057m 
 -474.07475m  108.0340m  462.8091m -207.6339m  778.4769m 
 -473.97475m  108.0467m  462.7664m -207.5351m  778.3482m 
 -473.87475m  108.0593m  462.7237m -207.4364m  778.2194m 
 -473.77475m  108.0720m  462.6810m -207.3376m  778.0907m 
 -473.67475m  108.0847m  462.6383m -207.2389m  777.9620m 
 -473.57475m  108.0974m  462.5956m -207.1403m  777.8332m 
 -473.47475m  108.1101m  462.5528m -207.0416m  777.7045m 
 -473.37475m  108.1228m  462.5100m -206.9430m  777.5758m 
 -473.27475m  108.1356m  462.4672m -206.8443m  777.4471m 
 -473.17475m  108.1483m  462.4244m -206.7457m  777.3184m 
 -473.07475m  108.1610m  462.3816m -206.6472m  777.1898m 
 -472.97475m  108.1738m  462.3387m -206.5486m  777.0611m 
 -472.87475m  108.1866m  462.2958m -206.4501m  776.9324m 
 -472.77475m  108.1993m  462.2529m -206.3515m  776.8038m 
 -472.67475m  108.2121m  462.2100m -206.2530m  776.6752m 
 -472.57475m  108.2249m  462.1671m -206.1545m  776.5465m 
 -472.47475m  108.2377m  462.1241m -206.0561m  776.4179m 
 -472.37475m  108.2505m  462.0811m -205.9576m  776.2893m 
 -472.27475m  108.2634m  462.0381m -205.8592m  776.1607m 
 -472.17475m  108.2762m  461.9951m -205.7608m  776.0321m 
 -472.07475m  108.2890m  461.9521m -205.6624m  775.9035m 
 -471.97475m  108.3019m  461.9090m -205.5641m  775.7750m 
 -471.87475m  108.3147m  461.8659m -205.4657m  775.6464m 
 -471.77475m  108.3276m  461.8229m -205.3674m  775.5179m 
 -471.67475m  108.3405m  461.7797m -205.2691m  775.3893m 
 -471.57475m  108.3534m  461.7366m -205.1708m  775.2608m 
 -471.47475m  108.3663m  461.6934m -205.0725m  775.1323m 
 -471.37475m  108.3792m  461.6503m -204.9743m  775.0037m 
 -471.27475m  108.3921m  461.6071m -204.8761m  774.8752m 
 -471.17475m  108.4050m  461.5639m -204.7779m  774.7467m 
 -471.07475m  108.4180m  461.5206m -204.6797m  774.6183m 
 -470.97475m  108.4309m  461.4774m -204.5815m  774.4898m 
 -470.87475m  108.4439m  461.4341m -204.4834m  774.3613m 
 -470.77475m  108.4568m  461.3908m -204.3852m  774.2329m 
 -470.67475m  108.4698m  461.3475m -204.2871m  774.1044m 
 -470.57475m  108.4828m  461.3041m -204.1890m  773.9760m 
 -470.47475m  108.4958m  461.2608m -204.0910m  773.8475m 
 -470.37475m  108.5088m  461.2174m -203.9929m  773.7191m 
 -470.27475m  108.5218m  461.1740m -203.8949m  773.5907m 
 -470.17475m  108.5348m  461.1306m -203.7969m  773.4623m 
 -470.07475m  108.5478m  461.0872m -203.6989m  773.3339m 
 -469.97475m  108.5609m  461.0437m -203.6010m  773.2055m 
 -469.87475m  108.5739m  461.0002m -203.5030m  773.0772m 
 -469.77475m  108.5870m  460.9567m -203.4051m  772.9488m 
 -469.67475m  108.6001m  460.9132m -203.3072m  772.8205m 
 -469.57475m  108.6131m  460.8697m -203.2093m  772.6921m 
 -469.47475m  108.6262m  460.8261m -203.1114m  772.5638m 
 -469.37475m  108.6393m  460.7826m -203.0136m  772.4355m 
 -469.27475m  108.6524m  460.7390m -202.9157m  772.3072m 
 -469.17475m  108.6656m  460.6954m -202.8179m  772.1789m 
 -469.07475m  108.6787m  460.6517m -202.7202m  772.0506m 
 -468.97475m  108.6918m  460.6081m -202.6224m  771.9223m 
 -468.87475m  108.7050m  460.5644m -202.5246m  771.7940m 
 -468.77475m  108.7181m  460.5207m -202.4269m  771.6657m 
 -468.67475m  108.7313m  460.4770m -202.3292m  771.5375m 
 -468.57475m  108.7445m  460.4332m -202.2315m  771.4092m 
 -468.47475m  108.7577m  460.3895m -202.1339m  771.2810m 
 -468.37475m  108.7709m  460.3457m -202.0362m  771.1528m 
 -468.27475m  108.7841m  460.3019m -201.9386m  771.0246m 
 -468.17475m  108.7973m  460.2581m -201.8410m  770.8964m 
 -468.07475m  108.8105m  460.2143m -201.7434m  770.7682m 
 -467.97475m  108.8237m  460.1704m -201.6458m  770.6400m 
 -467.87475m  108.8370m  460.1265m -201.5483m  770.5118m 
 -467.77475m  108.8502m  460.0826m -201.4508m  770.3836m 
 -467.67475m  108.8635m  460.0387m -201.3533m  770.2555m 
 -467.57475m  108.8768m  459.9948m -201.2558m  770.1273m 
 -467.47475m  108.8901m  459.9508m -201.1583m  769.9992m 
 -467.37475m  108.9034m  459.9068m -201.0609m  769.8711m 
 -467.27475m  108.9167m  459.8628m -200.9634m  769.7429m 
 -467.17475m  108.9300m  459.8188m -200.8660m  769.6148m 
 -467.07475m  108.9433m  459.7748m -200.7686m  769.4867m 
 -466.97475m  108.9566m  459.7307m -200.6713m  769.3587m 
 -466.87475m  108.9700m  459.6867m -200.5739m  769.2306m 
 -466.77475m  108.9833m  459.6426m -200.4766m  769.1025m 
 -466.67475m  108.9967m  459.5984m -200.3793m  768.9745m 
 -466.57475m  109.0101m  459.5543m -200.2820m  768.8464m 
 -466.47475m  109.0235m  459.5101m -200.1848m  768.7184m 
 -466.37475m  109.0368m  459.4660m -200.0875m  768.5903m 
 -466.27475m  109.0502m  459.4218m -199.9903m  768.4623m 
 -466.17475m  109.0637m  459.3775m -199.8931m  768.3343m 
 -466.07475m  109.0771m  459.3333m -199.7959m  768.2063m 
 -465.97475m  109.0905m  459.2890m -199.6988m  768.0783m 
 -465.87475m  109.1040m  459.2448m -199.6016m  767.9503m 
 -465.77475m  109.1174m  459.2005m -199.5045m  767.8224m 
 -465.67475m  109.1309m  459.1561m -199.4074m  767.6944m 
 -465.57475m  109.1443m  459.1118m -199.3103m  767.5665m 
 -465.47475m  109.1578m  459.0674m -199.2133m  767.4385m 
 -465.37475m  109.1713m  459.0231m -199.1162m  767.3106m 
 -465.27475m  109.1848m  458.9787m -199.0192m  767.1827m 
 -465.17475m  109.1983m  458.9342m -198.9222m  767.0548m 
 -465.07475m  109.2119m  458.8898m -198.8252m  766.9269m 
 -464.97475m  109.2254m  458.8453m -198.7283m  766.7990m 
 -464.87475m  109.2389m  458.8008m -198.6313m  766.6711m 
 -464.77475m  109.2525m  458.7563m -198.5344m  766.5432m 
 -464.67475m  109.2661m  458.7118m -198.4375m  766.4154m 
 -464.57475m  109.2796m  458.6673m -198.3406m  766.2875m 
 -464.47475m  109.2932m  458.6227m -198.2438m  766.1597m 
 -464.37475m  109.3068m  458.5781m -198.1469m  766.0319m 
 -464.27475m  109.3204m  458.5335m -198.0501m  765.9041m 
 -464.17475m  109.3340m  458.4889m -197.9533m  765.7762m 
 -464.07475m  109.3476m  458.4442m -197.8566m  765.6484m 
 -463.97475m  109.3613m  458.3996m -197.7598m  765.5207m 
 -463.87475m  109.3749m  458.3549m -197.6631m  765.3929m 
 -463.77475m  109.3886m  458.3102m -197.5664m  765.2651m 
 -463.67475m  109.4022m  458.2655m -197.4697m  765.1374m 
 -463.57475m  109.4159m  458.2207m -197.3730m  765.0096m 
 -463.47475m  109.4296m  458.1759m -197.2763m  764.8819m 
 -463.37475m  109.4433m  458.1311m -197.1797m  764.7542m 
 -463.27475m  109.4570m  458.0863m -197.0831m  764.6264m 
 -463.17475m  109.4707m  458.0415m -196.9865m  764.4987m 
 -463.07475m  109.4844m  457.9967m -196.8899m  764.3710m 
 -462.97475m  109.4982m  457.9518m -196.7934m  764.2433m 
 -462.87475m  109.5119m  457.9069m -196.6968m  764.1157m 
 -462.77475m  109.5257m  457.8620m -196.6003m  763.9880m 
 -462.67475m  109.5395m  457.8170m -196.5039m  763.8604m 
 -462.57475m  109.5532m  457.7721m -196.4074m  763.7327m 
 -462.47475m  109.5670m  457.7271m -196.3109m  763.6051m 
 -462.37475m  109.5808m  457.6821m -196.2145m  763.4775m 
 -462.27475m  109.5946m  457.6371m -196.1181m  763.3498m 
 -462.17475m  109.6084m  457.5921m -196.0217m  763.2222m 
 -462.07475m  109.6223m  457.5470m -195.9254m  763.0946m 
 -461.97475m  109.6361m  457.5019m -195.8290m  762.9671m 
 -461.87475m  109.6500m  457.4568m -195.7327m  762.8395m 
 -461.77475m  109.6638m  457.4117m -195.6364m  762.7119m 
 -461.67475m  109.6777m  457.3666m -195.5401m  762.5844m 
 -461.57475m  109.6916m  457.3214m -195.4438m  762.4568m 
 -461.47475m  109.7055m  457.2763m -195.3476m  762.3293m 
 -461.37475m  109.7194m  457.2311m -195.2514m  762.2018m 
 -461.27475m  109.7333m  457.1858m -195.1552m  762.0743m 
 -461.17475m  109.7472m  457.1406m -195.0590m  761.9468m 
 -461.07475m  109.7611m  457.0953m -194.9628m  761.8193m 
 -460.97475m  109.7751m  457.0500m -194.8667m  761.6918m 
 -460.87475m  109.7890m  457.0047m -194.7706m  761.5643m 
 -460.77475m  109.8030m  456.9594m -194.6745m  761.4369m 
 -460.67475m  109.8170m  456.9141m -194.5784m  761.3094m 
 -460.57475m  109.8309m  456.8687m -194.4823m  761.1820m 
 -460.47475m  109.8449m  456.8233m -194.3863m  761.0546m 
 -460.37475m  109.8589m  456.7779m -194.2903m  760.9272m 
 -460.27475m  109.8730m  456.7325m -194.1943m  760.7997m 
 -460.17475m  109.8870m  456.6870m -194.0983m  760.6724m 
 -460.07475m  109.9010m  456.6416m -194.0024m  760.5450m 
 -459.97475m  109.9151m  456.5961m -193.9064m  760.4176m 
 -459.87475m  109.9291m  456.5506m -193.8105m  760.2902m 
 -459.77475m  109.9432m  456.5051m -193.7146m  760.1629m 
 -459.67475m  109.9573m  456.4595m -193.6188m  760.0355m 
 -459.57475m  109.9714m  456.4139m -193.5229m  759.9082m 
 -459.47475m  109.9855m  456.3683m -193.4271m  759.7809m 
 -459.37475m  109.9996m  456.3227m -193.3313m  759.6536m 
 -459.27475m  110.0137m  456.2771m -193.2355m  759.5263m 
 -459.17475m  110.0278m  456.2314m -193.1397m  759.3990m 
 -459.07475m  110.0420m  456.1858m -193.0440m  759.2717m 
 -458.97475m  110.0561m  456.1401m -192.9483m  759.1444m 
 -458.87475m  110.0703m  456.0943m -192.8525m  759.0172m 
 -458.77475m  110.0845m  456.0486m -192.7569m  758.8899m 
 -458.67475m  110.0986m  456.0028m -192.6612m  758.7627m 
 -458.57475m  110.1128m  455.9571m -192.5656m  758.6355m 
 -458.47475m  110.1270m  455.9113m -192.4699m  758.5083m 
 -458.37475m  110.1413m  455.8654m -192.3743m  758.3810m 
 -458.27475m  110.1555m  455.8196m -192.2788m  758.2539m 
 -458.17475m  110.1697m  455.7737m -192.1832m  758.1267m 
 -458.07475m  110.1840m  455.7279m -192.0877m  757.9995m 
 -457.97475m  110.1982m  455.6820m -191.9921m  757.8723m 
 -457.87475m  110.2125m  455.6360m -191.8966m  757.7452m 
 -457.77475m  110.2268m  455.5901m -191.8012m  757.6180m 
 -457.67475m  110.2411m  455.5441m -191.7057m  757.4909m 
 -457.57475m  110.2554m  455.4981m -191.6103m  757.3638m 
 -457.47475m  110.2697m  455.4521m -191.5149m  757.2367m 
 -457.37475m  110.2840m  455.4061m -191.4195m  757.1096m 
 -457.27475m  110.2984m  455.3600m -191.3241m  756.9825m 
 -457.17475m  110.3127m  455.3140m -191.2288m  756.8554m 
 -457.07475m  110.3271m  455.2679m -191.1334m  756.7284m 
 -456.97475m  110.3414m  455.2218m -191.0381m  756.6013m 
 -456.87475m  110.3558m  455.1756m -190.9428m  756.4743m 
 -456.77475m  110.3702m  455.1295m -190.8476m  756.3472m 
 -456.67475m  110.3846m  455.0833m -190.7523m  756.2202m 
 -456.57475m  110.3990m  455.0371m -190.6571m  756.0932m 
 -456.47475m  110.4134m  454.9909m -190.5619m  755.9662m 
 -456.37475m  110.4279m  454.9447m -190.4667m  755.8392m 
 -456.27475m  110.4423m  454.8984m -190.3715m  755.7122m 
 -456.17475m  110.4568m  454.8521m -190.2764m  755.5853m 
 -456.07475m  110.4712m  454.8058m -190.1813m  755.4583m 
 -455.97475m  110.4857m  454.7595m -190.0862m  755.3314m 
 -455.87475m  110.5002m  454.7131m -189.9911m  755.2044m 
 -455.77475m  110.5147m  454.6668m -189.8960m  755.0775m 
 -455.67475m  110.5292m  454.6204m -189.8010m  754.9506m 
 -455.57475m  110.5437m  454.5740m -189.7060m  754.8237m 
 -455.47475m  110.5582m  454.5276m -189.6110m  754.6968m 
 -455.37475m  110.5728m  454.4811m -189.5160m  754.5699m 
 -455.27475m  110.5873m  454.4346m -189.4211m  754.4431m 
 -455.17475m  110.6019m  454.3882m -189.3261m  754.3162m 
 -455.07475m  110.6165m  454.3416m -189.2312m  754.1894m 
 -454.97475m  110.6311m  454.2951m -189.1363m  754.0625m 
 -454.87475m  110.6457m  454.2486m -189.0415m  753.9357m 
 -454.77475m  110.6603m  454.2020m -188.9466m  753.8089m 
 -454.67475m  110.6749m  454.1554m -188.8518m  753.6821m 
 -454.57475m  110.6895m  454.1088m -188.7570m  753.5553m 
 -454.47475m  110.7041m  454.0621m -188.6622m  753.4285m 
 -454.37475m  110.7188m  454.0155m -188.5675m  753.3017m 
 -454.27475m  110.7335m  453.9688m -188.4727m  753.1750m 
 -454.17475m  110.7481m  453.9221m -188.3780m  753.0482m 
 -454.07475m  110.7628m  453.8754m -188.2833m  752.9215m 
 -453.97475m  110.7775m  453.8286m -188.1886m  752.7948m 
 -453.87475m  110.7922m  453.7819m -188.0940m  752.6680m 
 -453.77475m  110.8069m  453.7351m -187.9993m  752.5413m 
 -453.67475m  110.8217m  453.6883m -187.9047m  752.4147m 
 -453.57475m  110.8364m  453.6415m -187.8101m  752.2880m 
 -453.47475m  110.8512m  453.5946m -187.7155m  752.1613m 
 -453.37475m  110.8659m  453.5477m -187.6210m  752.0346m 
 -453.27475m  110.8807m  453.5008m -187.5265m  751.9080m 
 -453.17475m  110.8955m  453.4539m -187.4319m  751.7814m 
 -453.07475m  110.9103m  453.4070m -187.3375m  751.6547m 
 -452.97475m  110.9251m  453.3600m -187.2430m  751.5281m 
 -452.87475m  110.9399m  453.3131m -187.1485m  751.4015m 
 -452.77475m  110.9547m  453.2661m -187.0541m  751.2749m 
 -452.67475m  110.9696m  453.2191m -186.9597m  751.1483m 
 -452.57475m  110.9844m  453.1720m -186.8653m  751.0218m 
 -452.47475m  110.9993m  453.1250m -186.7710m  750.8952m 
 -452.37475m  111.0142m  453.0779m -186.6766m  750.7687m 
 -452.27475m  111.0291m  453.0308m -186.5823m  750.6421m 
 -452.17475m  111.0440m  452.9836m -186.4880m  750.5156m 
 -452.07475m  111.0589m  452.9365m -186.3937m  750.3891m 
 -451.97475m  111.0738m  452.8893m -186.2995m  750.2626m 
 -451.87475m  111.0887m  452.8422m -186.2052m  750.1361m 
 -451.77475m  111.1037m  452.7949m -186.1110m  750.0096m 
 -451.67475m  111.1186m  452.7477m -186.0168m  749.8832m 
 -451.57475m  111.1336m  452.7005m -185.9227m  749.7567m 
 -451.47475m  111.1486m  452.6532m -185.8285m  749.6303m 
 -451.37475m  111.1635m  452.6059m -185.7344m  749.5038m 
 -451.27475m  111.1785m  452.5586m -185.6403m  749.3774m 
 -451.17475m  111.1936m  452.5112m -185.5462m  749.2510m 
 -451.07475m  111.2086m  452.4639m -185.4521m  749.1246m 
 -450.97475m  111.2236m  452.4165m -185.3581m  748.9982m 
 -450.87475m  111.2387m  452.3691m -185.2641m  748.8718m 
 -450.77475m  111.2537m  452.3217m -185.1701m  748.7455m 
 -450.67475m  111.2688m  452.2742m -185.0761m  748.6191m 
 -450.57475m  111.2839m  452.2268m -184.9821m  748.4928m 
 -450.47475m  111.2989m  452.1793m -184.8882m  748.3664m 
 -450.37475m  111.3141m  452.1318m -184.7943m  748.2401m 
 -450.27475m  111.3292m  452.0843m -184.7004m  748.1138m 
 -450.17475m  111.3443m  452.0367m -184.6065m  747.9875m 
 -450.07475m  111.3594m  451.9891m -184.5127m  747.8612m 
 -449.97475m  111.3746m  451.9416m -184.4188m  747.7350m 
 -449.87475m  111.3897m  451.8939m -184.3250m  747.6087m 
 -449.77475m  111.4049m  451.8463m -184.2312m  747.4825m 
 -449.67475m  111.4201m  451.7986m -184.1375m  747.3562m 
 -449.57475m  111.4353m  451.7510m -184.0437m  747.2300m 
 -449.47475m  111.4505m  451.7033m -183.9500m  747.1038m 
 -449.37475m  111.4657m  451.6556m -183.8563m  746.9776m 
 -449.27475m  111.4809m  451.6078m -183.7626m  746.8514m 
 -449.17475m  111.4962m  451.5600m -183.6690m  746.7252m 
 -449.07475m  111.5114m  451.5123m -183.5753m  746.5990m 
 -448.97475m  111.5267m  451.4645m -183.4817m  746.4729m 
 -448.87475m  111.5420m  451.4166m -183.3881m  746.3467m 
 -448.77475m  111.5573m  451.3688m -183.2946m  746.2206m 
 -448.67475m  111.5726m  451.3209m -183.2010m  746.0945m 
 -448.57475m  111.5879m  451.2730m -183.1075m  745.9684m 
 -448.47475m  111.6032m  451.2251m -183.0140m  745.8423m 
 -448.37475m  111.6185m  451.1772m -182.9205m  745.7162m 
 -448.27475m  111.6339m  451.1292m -182.8270m  745.5901m 
 -448.17475m  111.6492m  451.0812m -182.7336m  745.4640m 
 -448.07475m  111.6646m  451.0332m -182.6401m  745.3380m 
 -447.97475m  111.6800m  450.9852m -182.5467m  745.2119m 
 -447.87475m  111.6954m  450.9372m -182.4534m  745.0859m 
 -447.77475m  111.7108m  450.8891m -182.3600m  744.9599m 
 -447.67475m  111.7262m  450.8410m -182.2667m  744.8339m 
 -447.57475m  111.7416m  450.7929m -182.1734m  744.7079m 
 -447.47475m  111.7571m  450.7448m -182.0801m  744.5819m 
 -447.37475m  111.7725m  450.6967m -181.9868m  744.4559m 
 -447.27475m  111.7880m  450.6485m -181.8935m  744.3300m 
 -447.17475m  111.8034m  450.6003m -181.8003m  744.2040m 
 -447.07475m  111.8189m  450.5521m -181.7071m  744.0781m 
 -446.97475m  111.8344m  450.5038m -181.6139m  743.9522m 
 -446.87475m  111.8499m  450.4556m -181.5207m  743.8263m 
 -446.77475m  111.8655m  450.4073m -181.4276m  743.7004m 
 -446.67475m  111.8810m  450.3590m -181.3345m  743.5745m 
 -446.57475m  111.8965m  450.3107m -181.2414m  743.4486m 
 -446.47475m  111.9121m  450.2623m -181.1483m  743.3227m 
 -446.37475m  111.9277m  450.2140m -181.0552m  743.1969m 
 -446.27475m  111.9432m  450.1656m -180.9622m  743.0710m 
 -446.17475m  111.9588m  450.1172m -180.8692m  742.9452m 
 -446.07475m  111.9744m  450.0688m -180.7762m  742.8194m 
 -445.97475m  111.9901m  450.0203m -180.6832m  742.6936m 
 -445.87475m  112.0057m  449.9718m -180.5903m  742.5678m 
 -445.77475m  112.0213m  449.9233m -180.4974m  742.4420m 
 -445.67475m  112.0370m  449.8748m -180.4045m  742.3163m 
 -445.57475m  112.0527m  449.8263m -180.3116m  742.1905m 
 -445.47475m  112.0683m  449.7777m -180.2187m  742.0648m 
 -445.37475m  112.0840m  449.7291m -180.1259m  741.9390m 
 -445.27475m  112.0997m  449.6805m -180.0330m  741.8133m 
 -445.17475m  112.1154m  449.6319m -179.9402m  741.6876m 
 -445.07475m  112.1312m  449.5833m -179.8475m  741.5619m 
 -444.97475m  112.1469m  449.5346m -179.7547m  741.4362m 
 -444.87475m  112.1626m  449.4859m -179.6620m  741.3105m 
 -444.77475m  112.1784m  449.4372m -179.5693m  741.1849m 
 -444.67475m  112.1942m  449.3885m -179.4766m  741.0592m 
 -444.57475m  112.2100m  449.3397m -179.3839m  740.9336m 
 -444.47475m  112.2258m  449.2909m -179.2913m  740.8080m 
 -444.37475m  112.2416m  449.2421m -179.1986m  740.6824m 
 -444.27475m  112.2574m  449.1933m -179.1060m  740.5568m 
 -444.17475m  112.2732m  449.1445m -179.0135m  740.4312m 
 -444.07475m  112.2891m  449.0956m -178.9209m  740.3056m 
 -443.97475m  112.3049m  449.0467m -178.8284m  740.1800m 
 -443.87475m  112.3208m  448.9978m -178.7359m  740.0545m 
 -443.77475m  112.3367m  448.9489m -178.6434m  739.9289m 
 -443.67475m  112.3526m  448.9000m -178.5509m  739.8034m 
 -443.57475m  112.3685m  448.8510m -178.4584m  739.6779m 
 -443.47475m  112.3844m  448.8020m -178.3660m  739.5524m 
 -443.37475m  112.4003m  448.7530m -178.2736m  739.4269m 
 -443.27475m  112.4163m  448.7039m -178.1812m  739.3014m 
 -443.17475m  112.4322m  448.6549m -178.0889m  739.1760m 
 -443.07475m  112.4482m  448.6058m -177.9965m  739.0505m 
 -442.97475m  112.4642m  448.5567m -177.9042m  738.9251m 
 -442.87475m  112.4802m  448.5076m -177.8119m  738.7996m 
 -442.77475m  112.4962m  448.4584m -177.7196m  738.6742m 
 -442.67475m  112.5122m  448.4093m -177.6274m  738.5488m 
 -442.57475m  112.5282m  448.3601m -177.5351m  738.4234m 
 -442.47475m  112.5443m  448.3109m -177.4429m  738.2981m 
 -442.37475m  112.5603m  448.2616m -177.3507m  738.1727m 
 -442.27475m  112.5764m  448.2124m -177.2586m  738.0473m 
 -442.17475m  112.5925m  448.1631m -177.1664m  737.9220m 
 -442.07475m  112.6086m  448.1138m -177.0743m  737.7967m 
 -441.97475m  112.6247m  448.0645m -176.9822m  737.6713m 
 -441.87475m  112.6408m  448.0152m -176.8901m  737.5460m 
 -441.77475m  112.6569m  447.9658m -176.7981m  737.4207m 
 -441.67475m  112.6730m  447.9164m -176.7060m  737.2955m 
 -441.57475m  112.6892m  447.8670m -176.6140m  737.1702m 
 -441.47475m  112.7054m  447.8176m -176.5220m  737.0449m 
 -441.37475m  112.7215m  447.7681m -176.4300m  736.9197m 
 -441.27475m  112.7377m  447.7186m -176.3381m  736.7945m 
 -441.17475m  112.7539m  447.6691m -176.2462m  736.6692m 
 -441.07475m  112.7701m  447.6196m -176.1543m  736.5440m 
 -440.97475m  112.7864m  447.5701m -176.0624m  736.4188m 
 -440.87475m  112.8026m  447.5205m -175.9705m  736.2937m 
 -440.77475m  112.8189m  447.4710m -175.8787m  736.1685m 
 -440.67475m  112.8351m  447.4214m -175.7869m  736.0433m 
 -440.57475m  112.8514m  447.3717m -175.6951m  735.9182m 
 -440.47475m  112.8677m  447.3221m -175.6033m  735.7931m 
 -440.37475m  112.8840m  447.2724m -175.5115m  735.6679m 
 -440.27475m  112.9003m  447.2227m -175.4198m  735.5428m 
 -440.17475m  112.9166m  447.1730m -175.3281m  735.4177m 
 -440.07475m  112.9330m  447.1233m -175.2364m  735.2927m 
 -439.97475m  112.9493m  447.0735m -175.1447m  735.1676m 
 -439.87475m  112.9657m  447.0237m -175.0531m  735.0425m 
 -439.77475m  112.9821m  446.9739m -174.9615m  734.9175m 
 -439.67475m  112.9985m  446.9241m -174.8699m  734.7925m 
 -439.57475m  113.0149m  446.8743m -174.7783m  734.6674m 
 -439.47475m  113.0313m  446.8244m -174.6868m  734.5424m 
 -439.37475m  113.0477m  446.7745m -174.5952m  734.4175m 
 -439.27475m  113.0642m  446.7246m -174.5037m  734.2925m 
 -439.17475m  113.0806m  446.6747m -174.4122m  734.1675m 
 -439.07475m  113.0971m  446.6247m -174.3208m  734.0425m 
 -438.97475m  113.1136m  446.5747m -174.2293m  733.9176m 
 -438.87475m  113.1301m  446.5247m -174.1379m  733.7927m 
 -438.77475m  113.1466m  446.4747m -174.0465m  733.6678m 
 -438.67475m  113.1631m  446.4247m -173.9551m  733.5429m 
 -438.57475m  113.1796m  446.3746m -173.8637m  733.4180m 
 -438.47475m  113.1962m  446.3245m -173.7724m  733.2931m 
 -438.37475m  113.2127m  446.2744m -173.6811m  733.1682m 
 -438.27475m  113.2293m  446.2243m -173.5898m  733.0434m 
 -438.17475m  113.2459m  446.1741m -173.4985m  732.9185m 
 -438.07475m  113.2625m  446.1240m -173.4073m  732.7937m 
 -437.97475m  113.2791m  446.0738m -173.3161m  732.6689m 
 -437.87475m  113.2957m  446.0235m -173.2249m  732.5441m 
 -437.77475m  113.3123m  445.9733m -173.1337m  732.4193m 
 -437.67475m  113.3290m  445.9230m -173.0425m  732.2945m 
 -437.57475m  113.3456m  445.8727m -172.9514m  732.1698m 
 -437.47475m  113.3623m  445.8224m -172.8603m  732.0450m 
 -437.37475m  113.3790m  445.7721m -172.7692m  731.9203m 
 -437.27475m  113.3957m  445.7218m -172.6781m  731.7956m 
 -437.17475m  113.4124m  445.6714m -172.5871m  731.6708m 
 -437.07475m  113.4291m  445.6210m -172.4960m  731.5461m 
 -436.97475m  113.4458m  445.5706m -172.4050m  731.4215m 
 -436.87475m  113.4626m  445.5201m -172.3141m  731.2968m 
 -436.77475m  113.4794m  445.4697m -172.2231m  731.1721m 
 -436.67475m  113.4961m  445.4192m -172.1322m  731.0475m 
 -436.57475m  113.5129m  445.3687m -172.0412m  730.9229m 
 -436.47475m  113.5297m  445.3182m -171.9504m  730.7982m 
 -436.37475m  113.5465m  445.2676m -171.8595m  730.6736m 
 -436.27475m  113.5634m  445.2170m -171.7686m  730.5490m 
 -436.17475m  113.5802m  445.1664m -171.6778m  730.4244m 
 -436.07475m  113.5971m  445.1158m -171.5870m  730.2999m 
 -435.97475m  113.6139m  445.0652m -171.4962m  730.1753m 
 -435.87475m  113.6308m  445.0145m -171.4055m  730.0508m 
 -435.77475m  113.6477m  444.9638m -171.3147m  729.9263m 
 -435.67475m  113.6646m  444.9131m -171.2240m  729.8017m 
 -435.57475m  113.6815m  444.8624m -171.1333m  729.6772m 
 -435.47475m  113.6985m  444.8117m -171.0426m  729.5527m 
 -435.37475m  113.7154m  444.7609m -170.9520m  729.4283m 
 -435.27475m  113.7324m  444.7101m -170.8614m  729.3038m 
 -435.17475m  113.7493m  444.6593m -170.7708m  729.1794m 
 -435.07475m  113.7663m  444.6084m -170.6802m  729.0549m 
 -434.97475m  113.7833m  444.5576m -170.5896m  728.9305m 
 -434.87475m  113.8003m  444.5067m -170.4991m  728.8061m 
 -434.77475m  113.8173m  444.4558m -170.4086m  728.6817m 
 -434.67475m  113.8344m  444.4049m -170.3181m  728.5573m 
 -434.57475m  113.8514m  444.3539m -170.2276m  728.4329m 
 -434.47475m  113.8685m  444.3029m -170.1371m  728.3086m 
 -434.37475m  113.8856m  444.2519m -170.0467m  728.1842m 
 -434.27475m  113.9027m  444.2009m -169.9563m  728.0599m 
 -434.17475m  113.9198m  444.1499m -169.8659m  727.9356m 
 -434.07475m  113.9369m  444.0988m -169.7756m  727.8113m 
 -433.97475m  113.9540m  444.0477m -169.6852m  727.6870m 
 -433.87475m  113.9712m  443.9966m -169.5949m  727.5627m 
 -433.77475m  113.9883m  443.9455m -169.5046m  727.4384m 
 -433.67475m  114.0055m  443.8944m -169.4144m  727.3142m 
 -433.57475m  114.0227m  443.8432m -169.3241m  727.1900m 
 -433.47475m  114.0399m  443.7920m -169.2339m  727.0657m 
 -433.37475m  114.0571m  443.7408m -169.1437m  726.9415m 
 -433.27475m  114.0743m  443.6895m -169.0535m  726.8173m 
 -433.17475m  114.0915m  443.6383m -168.9633m  726.6931m 
 -433.07475m  114.1088m  443.5870m -168.8732m  726.5690m 
 -432.97475m  114.1260m  443.5357m -168.7831m  726.4448m 
 -432.87475m  114.1433m  443.4844m -168.6930m  726.3207m 
 -432.77475m  114.1606m  443.4330m -168.6029m  726.1965m 
 -432.67475m  114.1779m  443.3816m -168.5129m  726.0724m 
 -432.57475m  114.1952m  443.3302m -168.4228m  725.9483m 
 -432.47475m  114.2126m  443.2788m -168.3328m  725.8242m 
 -432.37475m  114.2299m  443.2274m -168.2428m  725.7001m 
 -432.27475m  114.2473m  443.1759m -168.1529m  725.5761m 
 -432.17475m  114.2646m  443.1244m -168.0629m  725.4520m 
 -432.07475m  114.2820m  443.0729m -167.9730m  725.3280m 
 -431.97475m  114.2994m  443.0214m -167.8831m  725.2040m 
 -431.87475m  114.3168m  442.9699m -167.7933m  725.0800m 
 -431.77475m  114.3343m  442.9183m -167.7034m  724.9560m 
 -431.67475m  114.3517m  442.8667m -167.6136m  724.8320m 
 -431.57475m  114.3691m  442.8151m -167.5238m  724.7080m 
 -431.47475m  114.3866m  442.7634m -167.4340m  724.5841m 
 -431.37475m  114.4041m  442.7118m -167.3443m  724.4601m 
 -431.27475m  114.4216m  442.6601m -167.2545m  724.3362m 
 -431.17475m  114.4391m  442.6084m -167.1648m  724.2123m 
 -431.07475m  114.4566m  442.5566m -167.0751m  724.0884m 
 -430.97475m  114.4741m  442.5049m -166.9854m  723.9645m 
 -430.87475m  114.4917m  442.4531m -166.8958m  723.8406m 
 -430.77475m  114.5093m  442.4013m -166.8062m  723.7167m 
 -430.67475m  114.5268m  442.3495m -166.7166m  723.5929m 
 -430.57475m  114.5444m  442.2977m -166.6270m  723.4691m 
 -430.47475m  114.5620m  442.2458m -166.5374m  723.3453m 
 -430.37475m  114.5796m  442.1939m -166.4479m  723.2214m 
 -430.27475m  114.5973m  442.1420m -166.3584m  723.0977m 
 -430.17475m  114.6149m  442.0901m -166.2689m  722.9739m 
 -430.07475m  114.6326m  442.0381m -166.1794m  722.8501m 
 -429.97475m  114.6502m  441.9861m -166.0900m  722.7264m 
 -429.87475m  114.6679m  441.9341m -166.0006m  722.6026m 
 -429.77475m  114.6856m  441.8821m -165.9112m  722.4789m 
 -429.67475m  114.7033m  441.8301m -165.8218m  722.3552m 
 -429.57475m  114.7211m  441.7780m -165.7324m  722.2315m 
 -429.47475m  114.7388m  441.7259m -165.6431m  722.1078m 
 -429.37475m  114.7566m  441.6738m -165.5538m  721.9842m 
 -429.27475m  114.7743m  441.6217m -165.4645m  721.8605m 
 -429.17475m  114.7921m  441.5695m -165.3752m  721.7369m 
 -429.07475m  114.8099m  441.5173m -165.2860m  721.6132m 
 -428.97475m  114.8277m  441.4651m -165.1968m  721.4896m 
 -428.87475m  114.8455m  441.4129m -165.1076m  721.3660m 
 -428.77475m  114.8634m  441.3607m -165.0184m  721.2424m 
 -428.67475m  114.8812m  441.3084m -164.9293m  721.1189m 
 -428.57475m  114.8991m  441.2561m -164.8401m  720.9953m 
 -428.47475m  114.9170m  441.2038m -164.7510m  720.8718m 
 -428.37475m  114.9349m  441.1514m -164.6619m  720.7483m 
 -428.27475m  114.9528m  441.0991m -164.5729m  720.6247m 
 -428.17475m  114.9707m  441.0467m -164.4838m  720.5012m 
 -428.07475m  114.9886m  440.9943m -164.3948m  720.3778m 
 -427.97475m  115.0066m  440.9419m -164.3058m  720.2543m 
 -427.87475m  115.0246m  440.8894m -164.2168m  720.1308m 
 -427.77475m  115.0425m  440.8370m -164.1279m  720.0074m 
 -427.67475m  115.0605m  440.7845m -164.0390m  719.8840m 
 -427.57475m  115.0785m  440.7319m -163.9501m  719.7605m 
 -427.47475m  115.0966m  440.6794m -163.8612m  719.6371m 
 -427.37475m  115.1146m  440.6268m -163.7723m  719.5137m 
 -427.27475m  115.1326m  440.5743m -163.6835m  719.3904m 
 -427.17475m  115.1507m  440.5217m -163.5947m  719.2670m 
 -427.07475m  115.1688m  440.4690m -163.5059m  719.1437m 
 -426.97475m  115.1869m  440.4164m -163.4171m  719.0203m 
 -426.87475m  115.2050m  440.3637m -163.3284m  718.8970m 
 -426.77475m  115.2231m  440.3110m -163.2396m  718.7737m 
 -426.67475m  115.2412m  440.2583m -163.1509m  718.6504m 
 -426.57475m  115.2594m  440.2055m -163.0622m  718.5272m 
 -426.47475m  115.2775m  440.1528m -162.9736m  718.4039m 
 -426.37475m  115.2957m  440.1000m -162.8850m  718.2807m 
 -426.27475m  115.3139m  440.0472m -162.7963m  718.1574m 
 -426.17475m  115.3321m  439.9944m -162.7078m  718.0342m 
 -426.07475m  115.3503m  439.9415m -162.6192m  717.9110m 
 -425.97475m  115.3686m  439.8886m -162.5306m  717.7878m 
 -425.87475m  115.3868m  439.8357m -162.4421m  717.6646m 
 -425.77475m  115.4051m  439.7828m -162.3536m  717.5415m 
 -425.67475m  115.4233m  439.7299m -162.2651m  717.4183m 
 -425.57475m  115.4416m  439.6769m -162.1767m  717.2952m 
 -425.47475m  115.4599m  439.6239m -162.0883m  717.1721m 
 -425.37475m  115.4783m  439.5709m -161.9999m  717.0490m 
 -425.27475m  115.4966m  439.5178m -161.9115m  716.9259m 
 -425.17475m  115.5149m  439.4648m -161.8231m  716.8028m 
 -425.07475m  115.5333m  439.4117m -161.7348m  716.6798m 
 -424.97475m  115.5517m  439.3586m -161.6464m  716.5567m 
 -424.87475m  115.5701m  439.3055m -161.5582m  716.4337m 
 -424.77475m  115.5885m  439.2523m -161.4699m  716.3107m 
 -424.67475m  115.6069m  439.1992m -161.3816m  716.1877m 
 -424.57475m  115.6253m  439.1460m -161.2934m  716.0647m 
 -424.47475m  115.6438m  439.0927m -161.2052m  715.9417m 
 -424.37475m  115.6622m  439.0395m -161.1170m  715.8188m 
 -424.27475m  115.6807m  438.9862m -161.0289m  715.6958m 
 -424.17475m  115.6992m  438.9330m -160.9407m  715.5729m 
 -424.07475m  115.7177m  438.8797m -160.8526m  715.4500m 
 -423.97475m  115.7362m  438.8263m -160.7645m  715.3271m 
 -423.87475m  115.7548m  438.7730m -160.6764m  715.2042m 
 -423.77475m  115.7733m  438.7196m -160.5884m  715.0813m 
 -423.67475m  115.7919m  438.6662m -160.5004m  714.9585m 
 -423.57475m  115.8105m  438.6128m -160.4124m  714.8356m 
 -423.47475m  115.8291m  438.5593m -160.3244m  714.7128m 
 -423.37475m  115.8477m  438.5059m -160.2364m  714.5900m 
 -423.27475m  115.8663m  438.4524m -160.1485m  714.4672m 
 -423.17475m  115.8849m  438.3989m -160.0606m  714.3444m 
 -423.07475m  115.9036m  438.3453m -159.9727m  714.2216m 
 -422.97475m  115.9223m  438.2918m -159.8848m  714.0989m 
 -422.87475m  115.9409m  438.2382m -159.7970m  713.9761m 
 -422.77475m  115.9596m  438.1846m -159.7092m  713.8534m 
 -422.67475m  115.9783m  438.1310m -159.6214m  713.7307m 
 -422.57475m  115.9971m  438.0773m -159.5336m  713.6080m 
 -422.47475m  116.0158m  438.0236m -159.4459m  713.4853m 
 -422.37475m  116.0346m  437.9700m -159.3581m  713.3627m 
 -422.27475m  116.0533m  437.9162m -159.2704m  713.2400m 
 -422.17475m  116.0721m  437.8625m -159.1828m  713.1174m 
 -422.07475m  116.0909m  437.8087m -159.0951m  712.9948m 
 -421.97475m  116.1097m  437.7550m -159.0075m  712.8721m 
 -421.87475m  116.1286m  437.7011m -158.9198m  712.7496m 
 -421.77475m  116.1474m  437.6473m -158.8323m  712.6270m 
 -421.67475m  116.1663m  437.5935m -158.7447m  712.5044m 
 -421.57475m  116.1851m  437.5396m -158.6571m  712.3819m 
 -421.47475m  116.2040m  437.4857m -158.5696m  712.2593m 
 -421.37475m  116.2229m  437.4318m -158.4821m  712.1368m 
 -421.27475m  116.2419m  437.3778m -158.3946m  712.0143m 
 -421.17475m  116.2608m  437.3239m -158.3072m  711.8918m 
 -421.07475m  116.2797m  437.2699m -158.2197m  711.7694m 
 -420.97475m  116.2987m  437.2159m -158.1323m  711.6469m 
 -420.87475m  116.3177m  437.1618m -158.0450m  711.5245m 
 -420.77475m  116.3367m  437.1078m -157.9576m  711.4020m 
 -420.67475m  116.3557m  437.0537m -157.8702m  711.2796m 
 -420.57475m  116.3747m  436.9996m -157.7829m  711.1572m 
 -420.47475m  116.3937m  436.9455m -157.6956m  711.0348m 
 -420.37475m  116.4128m  436.8913m -157.6084m  710.9125m 
 -420.27475m  116.4319m  436.8371m -157.5211m  710.7901m 
 -420.17475m  116.4510m  436.7829m -157.4339m  710.6678m 
 -420.07475m  116.4701m  436.7287m -157.3467m  710.5455m 
 -419.97475m  116.4892m  436.6745m -157.2595m  710.4231m 
 -419.87475m  116.5083m  436.6202m -157.1723m  710.3009m 
 -419.77475m  116.5274m  436.5659m -157.0852m  710.1786m 
 -419.67475m  116.5466m  436.5116m -156.9981m  710.0563m 
 -419.57475m  116.5658m  436.4573m -156.9110m  709.9341m 
 -419.47475m  116.5850m  436.4029m -156.8239m  709.8118m 
 -419.37475m  116.6042m  436.3486m -156.7369m  709.6896m 
 -419.27475m  116.6234m  436.2942m -156.6499m  709.5674m 
 -419.17475m  116.6426m  436.2397m -156.5629m  709.4452m 
 -419.07475m  116.6619m  436.1853m -156.4759m  709.3231m 
 -418.97475m  116.6811m  436.1308m -156.3889m  709.2009m 
 -418.87475m  116.7004m  436.0763m -156.3020m  709.0788m 
 -418.77475m  116.7197m  436.0218m -156.2151m  708.9566m 
 -418.67475m  116.7390m  435.9673m -156.1282m  708.8345m 
 -418.57475m  116.7583m  435.9127m -156.0414m  708.7124m 
 -418.47475m  116.7777m  435.8581m -155.9545m  708.5904m 
 -418.37475m  116.7970m  435.8035m -155.8677m  708.4683m 
 -418.27475m  116.8164m  435.7489m -155.7809m  708.3462m 
 -418.17475m  116.8358m  435.6943m -155.6941m  708.2242m 
 -418.07475m  116.8552m  435.6396m -155.6074m  708.1022m 
 -417.97475m  116.8746m  435.5849m -155.5207m  707.9802m 
 -417.87475m  116.8941m  435.5302m -155.4340m  707.8582m 
 -417.77475m  116.9135m  435.4754m -155.3473m  707.7362m 
 -417.67475m  116.9330m  435.4207m -155.2606m  707.6143m 
 -417.57475m  116.9525m  435.3659m -155.1740m  707.4923m 
 -417.47475m  116.9719m  435.3111m -155.0874m  707.3704m 
 -417.37475m  116.9915m  435.2562m -155.0008m  707.2485m 
 -417.27475m  117.0110m  435.2014m -154.9142m  707.1266m 
 -417.17475m  117.0305m  435.1465m -154.8277m  707.0047m 
 -417.07475m  117.0501m  435.0916m -154.7412m  706.8828m 
 -416.97475m  117.0697m  435.0367m -154.6547m  706.7610m 
 -416.87475m  117.0892m  434.9817m -154.5682m  706.6392m 
 -416.77475m  117.1088m  434.9267m -154.4818m  706.5173m 
 -416.67475m  117.1285m  434.8717m -154.3953m  706.3955m 
 -416.57475m  117.1481m  434.8167m -154.3089m  706.2738m 
 -416.47475m  117.1677m  434.7617m -154.2226m  706.1520m 
 -416.37475m  117.1874m  434.7066m -154.1362m  706.0302m 
 -416.27475m  117.2071m  434.6515m -154.0499m  705.9085m 
 -416.17475m  117.2268m  434.5964m -153.9635m  705.7868m 
 -416.07475m  117.2465m  434.5413m -153.8773m  705.6651m 
 -415.97475m  117.2662m  434.4861m -153.7910m  705.5434m 
 -415.87475m  117.2860m  434.4310m -153.7048m  705.4217m 
 -415.77475m  117.3057m  434.3758m -153.6185m  705.3000m 
 -415.67475m  117.3255m  434.3205m -153.5323m  705.1784m 
 -415.57475m  117.3453m  434.2653m -153.4462m  705.0567m 
 -415.47475m  117.3651m  434.2100m -153.3600m  704.9351m 
 -415.37475m  117.3849m  434.1547m -153.2739m  704.8135m 
 -415.27475m  117.4048m  434.0994m -153.1878m  704.6919m 
 -415.17475m  117.4246m  434.0441m -153.1017m  704.5704m 
 -415.07475m  117.4445m  433.9887m -153.0156m  704.4488m 
 -414.97475m  117.4644m  433.9333m -152.9296m  704.3273m 
 -414.87475m  117.4843m  433.8779m -152.8436m  704.2058m 
 -414.77475m  117.5042m  433.8225m -152.7576m  704.0843m 
 -414.67475m  117.5241m  433.7670m -152.6716m  703.9628m 
 -414.57475m  117.5441m  433.7116m -152.5857m  703.8413m 
 -414.47475m  117.5640m  433.6561m -152.4998m  703.7198m 
 -414.37475m  117.5840m  433.6005m -152.4139m  703.5984m 
 -414.27475m  117.6040m  433.5450m -152.3280m  703.4770m 
 -414.17475m  117.6240m  433.4894m -152.2421m  703.3556m 
 -414.07475m  117.6440m  433.4338m -152.1563m  703.2342m 
 -413.97475m  117.6641m  433.3782m -152.0705m  703.1128m 
 -413.87475m  117.6841m  433.3226m -151.9847m  702.9914m 
 -413.77475m  117.7042m  433.2669m -151.8989m  702.8701m 
 -413.67475m  117.7243m  433.2112m -151.8132m  702.7487m 
 -413.57475m  117.7444m  433.1555m -151.7275m  702.6274m 
 -413.47475m  117.7645m  433.0998m -151.6418m  702.5061m 
 -413.37475m  117.7847m  433.0440m -151.5561m  702.3848m 
 -413.27475m  117.8048m  432.9883m -151.4705m  702.2636m 
 -413.17475m  117.8250m  432.9325m -151.3849m  702.1423m 
 -413.07475m  117.8452m  432.8766m -151.2993m  702.0211m 
 -412.97475m  117.8654m  432.8208m -151.2137m  701.8999m 
 -412.87475m  117.8856m  432.7649m -151.1281m  701.7787m 
 -412.77475m  117.9058m  432.7090m -151.0426m  701.6575m 
 -412.67475m  117.9261m  432.6531m -150.9571m  701.5363m 
 -412.57475m  117.9464m  432.5972m -150.8716m  701.4152m 
 -412.47475m  117.9666m  432.5412m -150.7862m  701.2940m 
 -412.37475m  117.9869m  432.4852m -150.7007m  701.1729m 
 -412.27475m  118.0072m  432.4292m -150.6153m  701.0518m 
 -412.17475m  118.0276m  432.3732m -150.5299m  700.9307m 
 -412.07475m  118.0479m  432.3172m -150.4445m  700.8096m 
 -411.97475m  118.0683m  432.2611m -150.3592m  700.6886m 
 -411.87475m  118.0887m  432.2050m -150.2739m  700.5675m 
 -411.77475m  118.1091m  432.1489m -150.1886m  700.4465m 
 -411.67475m  118.1295m  432.0927m -150.1033m  700.3255m 
 -411.57475m  118.1499m  432.0366m -150.0180m  700.2045m 
 -411.47475m  118.1704m  431.9804m -149.9328m  700.0835m 
 -411.37475m  118.1908m  431.9242m -149.8476m  699.9626m 
 -411.27475m  118.2113m  431.8679m -149.7624m  699.8416m 
 -411.17475m  118.2318m  431.8117m -149.6772m  699.7207m 
 -411.07475m  118.2523m  431.7554m -149.5921m  699.5998m 
 -410.97475m  118.2728m  431.6991m -149.5070m  699.4789m 
 -410.87475m  118.2934m  431.6427m -149.4219m  699.3580m 
 -410.77475m  118.3139m  431.5864m -149.3368m  699.2371m 
 -410.67475m  118.3345m  431.5300m -149.2518m  699.1163m 
 -410.57475m  118.3551m  431.4736m -149.1668m  698.9955m 
 -410.47475m  118.3757m  431.4172m -149.0818m  698.8746m 
 -410.37475m  118.3963m  431.3608m -148.9968m  698.7538m 
 -410.27475m  118.4170m  431.3043m -148.9118m  698.6331m 
 -410.17475m  118.4376m  431.2478m -148.8269m  698.5123m 
 -410.07475m  118.4583m  431.1913m -148.7420m  698.3916m 
 -409.97475m  118.4790m  431.1348m -148.6571m  698.2708m 
 -409.87475m  118.4997m  431.0782m -148.5722m  698.1501m 
 -409.77475m  118.5204m  431.0216m -148.4874m  698.0294m 
 -409.67475m  118.5411m  430.9650m -148.4026m  697.9087m 
 -409.57475m  118.5619m  430.9084m -148.3178m  697.7881m 
 -409.47475m  118.5827m  430.8517m -148.2330m  697.6674m 
 -409.37475m  118.6035m  430.7951m -148.1483m  697.5468m 
 -409.27475m  118.6243m  430.7384m -148.0635m  697.4262m 
 -409.17475m  118.6451m  430.6816m -147.9788m  697.3056m 
 -409.07475m  118.6659m  430.6249m -147.8942m  697.1850m 
 -408.97475m  118.6868m  430.5681m -147.8095m  697.0644m 
 -408.87475m  118.7077m  430.5113m -147.7249m  696.9439m 
 -408.77475m  118.7285m  430.4545m -147.6403m  696.8233m 
 -408.67475m  118.7494m  430.3977m -147.5557m  696.7028m 
 -408.57475m  118.7704m  430.3408m -147.4711m  696.5823m 
 -408.47475m  118.7913m  430.2839m -147.3866m  696.4618m 
 -408.37475m  118.8123m  430.2270m -147.3021m  696.3414m 
 -408.27475m  118.8332m  430.1701m -147.2176m  696.2209m 
 -408.17475m  118.8542m  430.1132m -147.1331m  696.1005m 
 -408.07475m  118.8752m  430.0562m -147.0487m  695.9801m 
 -407.97475m  118.8962m  429.9992m -146.9642m  695.8597m 
 -407.87475m  118.9173m  429.9422m -146.8798m  695.7393m 
 -407.77475m  118.9383m  429.8851m -146.7955m  695.6189m 
 -407.67475m  118.9594m  429.8281m -146.7111m  695.4986m 
 -407.57475m  118.9805m  429.7710m -146.6268m  695.3782m 
 -407.47475m  119.0016m  429.7139m -146.5425m  695.2579m 
 -407.37475m  119.0227m  429.6567m -146.4582m  695.1376m 
 -407.27475m  119.0439m  429.5996m -146.3739m  695.0173m 
 -407.17475m  119.0650m  429.5424m -146.2897m  694.8971m 
 -407.07475m  119.0862m  429.4852m -146.2055m  694.7768m 
 -406.97475m  119.1074m  429.4279m -146.1213m  694.6566m 
 -406.87475m  119.1286m  429.3707m -146.0371m  694.5364m 
 -406.77475m  119.1498m  429.3134m -145.9530m  694.4162m 
 -406.67475m  119.1711m  429.2561m -145.8688m  694.2960m 
 -406.57475m  119.1923m  429.1988m -145.7847m  694.1758m 
 -406.47475m  119.2136m  429.1414m -145.7007m  694.0557m 
 -406.37475m  119.2349m  429.0841m -145.6166m  693.9356m 
 -406.27475m  119.2562m  429.0267m -145.5326m  693.8155m 
 -406.17475m  119.2775m  428.9693m -145.4486m  693.6954m 
 -406.07475m  119.2989m  428.9118m -145.3646m  693.5753m 
 -405.97475m  119.3202m  428.8544m -145.2806m  693.4552m 
 -405.87475m  119.3416m  428.7969m -145.1967m  693.3352m 
 -405.77475m  119.3630m  428.7394m -145.1128m  693.2151m 
 -405.67475m  119.3844m  428.6819m -145.0289m  693.0951m 
 -405.57475m  119.4058m  428.6243m -144.9450m  692.9751m 
 -405.47475m  119.4273m  428.5667m -144.8612m  692.8552m 
 -405.37475m  119.4487m  428.5091m -144.7773m  692.7352m 
 -405.27475m  119.4702m  428.4515m -144.6935m  692.6153m 
 -405.17475m  119.4917m  428.3939m -144.6098m  692.4953m 
 -405.07475m  119.5132m  428.3362m -144.5260m  692.3754m 
 -404.97475m  119.5348m  428.2785m -144.4423m  692.2555m 
 -404.87475m  119.5563m  428.2208m -144.3586m  692.1357m 
 -404.77475m  119.5779m  428.1630m -144.2749m  692.0158m 
 -404.67475m  119.5995m  428.1053m -144.1912m  691.8960m 
 -404.57475m  119.6211m  428.0475m -144.1076m  691.7761m 
 -404.47475m  119.6427m  427.9897m -144.0240m  691.6563m 
 -404.37475m  119.6643m  427.9319m -143.9404m  691.5366m 
 -404.27475m  119.6860m  427.8740m -143.8568m  691.4168m 
 -404.17475m  119.7076m  427.8161m -143.7733m  691.2970m 
 -404.07475m  119.7293m  427.7582m -143.6898m  691.1773m 
 -403.97475m  119.7510m  427.7003m -143.6063m  691.0576m 
 -403.87475m  119.7727m  427.6424m -143.5228m  690.9379m 
 -403.77475m  119.7945m  427.5844m -143.4393m  690.8182m 
 -403.67475m  119.8162m  427.5264m -143.3559m  690.6985m 
 -403.57475m  119.8380m  427.4684m -143.2725m  690.5789m 
 -403.47475m  119.8598m  427.4103m -143.1891m  690.4593m 
 -403.37475m  119.8816m  427.3523m -143.1058m  690.3396m 
 -403.27475m  119.9034m  427.2942m -143.0224m  690.2200m 
 -403.17475m  119.9253m  427.2361m -142.9391m  690.1005m 
 -403.07475m  119.9471m  427.1780m -142.8558m  689.9809m 
 -402.97475m  119.9690m  427.1198m -142.7725m  689.8614m 
 -402.87475m  119.9909m  427.0616m -142.6893m  689.7418m 
 -402.77475m  120.0128m  427.0034m -142.6061m  689.6223m 
 -402.67475m  120.0347m  426.9452m -142.5229m  689.5028m 
 -402.57475m  120.0567m  426.8870m -142.4397m  689.3834m 
 -402.47475m  120.0787m  426.8287m -142.3566m  689.2639m 
 -402.37475m  120.1006m  426.7704m -142.2734m  689.1445m 
 -402.27475m  120.1226m  426.7121m -142.1903m  689.0250m 
 -402.17475m  120.1447m  426.6537m -142.1073m  688.9056m 
 -402.07475m  120.1667m  426.5954m -142.0242m  688.7863m 
 -401.97475m  120.1887m  426.5370m -141.9412m  688.6669m 
 -401.87475m  120.2108m  426.4786m -141.8581m  688.5475m 
 -401.77475m  120.2329m  426.4201m -141.7752m  688.4282m 
 -401.67475m  120.2550m  426.3617m -141.6922m  688.3089m 
 -401.57475m  120.2771m  426.3032m -141.6093m  688.1896m 
 -401.47475m  120.2993m  426.2447m -141.5263m  688.0703m 
 -401.37475m  120.3214m  426.1862m -141.4434m  687.9510m 
 -401.27475m  120.3436m  426.1276m -141.3606m  687.8318m 
 -401.17475m  120.3658m  426.0691m -141.2777m  687.7126m 
 -401.07475m  120.3880m  426.0105m -141.1949m  687.5934m 
 -400.97475m  120.4103m  425.9518m -141.1121m  687.4742m 
 -400.87475m  120.4325m  425.8932m -141.0293m  687.3550m 
 -400.77475m  120.4548m  425.8345m -140.9466m  687.2358m 
 -400.67475m  120.4771m  425.7758m -140.8638m  687.1167m 
 -400.57475m  120.4994m  425.7171m -140.7811m  686.9976m 
 -400.47475m  120.5217m  425.6584m -140.6984m  686.8785m 
 -400.37475m  120.5440m  425.5996m -140.6158m  686.7594m 
 -400.27475m  120.5664m  425.5409m -140.5331m  686.6403m 
 -400.17475m  120.5887m  425.4821m -140.4505m  686.5213m 
 -400.07475m  120.6111m  425.4232m -140.3679m  686.4023m 
 -399.97475m  120.6335m  425.3644m -140.2853m  686.2832m 
 -399.87475m  120.6560m  425.3055m -140.2028m  686.1643m 
 -399.77475m  120.6784m  425.2466m -140.1203m  686.0453m 
 -399.67475m  120.7009m  425.1877m -140.0378m  685.9263m 
 -399.57475m  120.7234m  425.1287m -139.9553m  685.8074m 
 -399.47475m  120.7459m  425.0698m -139.8728m  685.6885m 
 -399.37475m  120.7684m  425.0108m -139.7904m  685.5696m 
 -399.27475m  120.7909m  424.9518m -139.7080m  685.4507m 
 -399.17475m  120.8135m  424.8927m -139.6256m  685.3318m 
 -399.07475m  120.8360m  424.8337m -139.5432m  685.2129m 
 -398.97475m  120.8586m  424.7746m -139.4609m  685.0941m 
 -398.87475m  120.8812m  424.7155m -139.3786m  684.9753m 
 -398.77475m  120.9038m  424.6564m -139.2963m  684.8565m 
 -398.67475m  120.9265m  424.5972m -139.2140m  684.7377m 
 -398.57475m  120.9492m  424.5380m -139.1318m  684.6190m 
 -398.47475m  120.9718m  424.4788m -139.0496m  684.5002m 
 -398.37475m  120.9945m  424.4196m -138.9674m  684.3815m 
 -398.27475m  121.0172m  424.3604m -138.8852m  684.2628m 
 -398.17475m  121.0400m  424.3011m -138.8030m  684.1441m 
 -398.07475m  121.0627m  424.2418m -138.7209m  684.0254m 
 -397.97475m  121.0855m  424.1825m -138.6388m  683.9068m 
 -397.87475m  121.1083m  424.1232m -138.5567m  683.7882m 
 -397.77475m  121.1311m  424.0638m -138.4746m  683.6695m 
 -397.67475m  121.1539m  424.0044m -138.3926m  683.5509m 
 -397.57475m  121.1768m  423.9450m -138.3106m  683.4324m 
 -397.47475m  121.1996m  423.8856m -138.2286m  683.3138m 
 -397.37475m  121.2225m  423.8261m -138.1466m  683.1953m 
 -397.27475m  121.2454m  423.7666m -138.0647m  683.0767m 
 -397.17475m  121.2683m  423.7071m -137.9828m  682.9582m 
 -397.07475m  121.2913m  423.6476m -137.9009m  682.8398m 
 -396.97475m  121.3142m  423.5881m -137.8190m  682.7213m 
 -396.87475m  121.3372m  423.5285m -137.7371m  682.6028m 
 -396.77475m  121.3602m  423.4689m -137.6553m  682.4844m 
 -396.67475m  121.3832m  423.4093m -137.5735m  682.3660m 
 -396.57475m  121.4062m  423.3497m -137.4917m  682.2476m 
 -396.47475m  121.4293m  423.2900m -137.4100m  682.1292m 
 -396.37475m  121.4523m  423.2303m -137.3282m  682.0109m 
 -396.27475m  121.4754m  423.1706m -137.2465m  681.8925m 
 -396.17475m  121.4985m  423.1109m -137.1648m  681.7742m 
 -396.07475m  121.5216m  423.0511m -137.0832m  681.6559m 
 -395.97475m  121.5448m  422.9913m -137.0015m  681.5376m 
 -395.87475m  121.5679m  422.9315m -136.9199m  681.4194m 
 -395.77475m  121.5911m  422.8717m -136.8383m  681.3011m 
 -395.67475m  121.6143m  422.8119m -136.7567m  681.1829m 
 -395.57475m  121.6375m  422.7520m -136.6752m  681.0647m 
 -395.47475m  121.6607m  422.6921m -136.5937m  680.9465m 
 -395.37475m  121.6840m  422.6322m -136.5121m  680.8283m 
 -395.27475m  121.7073m  422.5722m -136.4307m  680.7102m 
 -395.17475m  121.7305m  422.5123m -136.3492m  680.5920m 
 -395.07475m  121.7539m  422.4523m -136.2678m  680.4739m 
 -394.97475m  121.7772m  422.3923m -136.1864m  680.3558m 
 -394.87475m  121.8005m  422.3322m -136.1050m  680.2377m 
 -394.77475m  121.8239m  422.2722m -136.0236m  680.1197m 
 -394.67475m  121.8473m  422.2121m -135.9423m  680.0016m 
 -394.57475m  121.8707m  422.1520m -135.8610m  679.8836m 
 -394.47475m  121.8941m  422.0919m -135.7797m  679.7656m 
 -394.37475m  121.9175m  422.0317m -135.6984m  679.6476m 
 -394.27475m  121.9410m  421.9716m -135.6171m  679.5297m 
 -394.17475m  121.9645m  421.9114m -135.5359m  679.4117m 
 -394.07475m  121.9879m  421.8511m -135.4547m  679.2938m 
 -393.97475m  122.0115m  421.7909m -135.3735m  679.1759m 
 -393.87475m  122.0350m  421.7306m -135.2924m  679.0580m 
 -393.77475m  122.0585m  421.6703m -135.2112m  678.9401m 
 -393.67475m  122.0821m  421.6100m -135.1301m  678.8223m 
 -393.57475m  122.1057m  421.5497m -135.0490m  678.7044m 
 -393.47475m  122.1293m  421.4893m -134.9680m  678.5866m 
 -393.37475m  122.1529m  421.4290m -134.8869m  678.4688m 
 -393.27475m  122.1766m  421.3686m -134.8059m  678.3511m 
 -393.17475m  122.2002m  421.3081m -134.7249m  678.2333m 
 -393.07475m  122.2239m  421.2477m -134.6440m  678.1156m 
 -392.97475m  122.2476m  421.1872m -134.5630m  677.9978m 
 -392.87475m  122.2713m  421.1267m -134.4821m  677.8801m 
 -392.77475m  122.2951m  421.0662m -134.4012m  677.7625m 
 -392.67475m  122.3188m  421.0056m -134.3203m  677.6448m 
 -392.57475m  122.3426m  420.9451m -134.2395m  677.5272m 
 -392.47475m  122.3664m  420.8845m -134.1586m  677.4095m 
 -392.37475m  122.3902m  420.8239m -134.0778m  677.2919m 
 -392.27475m  122.4141m  420.7632m -133.9970m  677.1743m 
 -392.17475m  122.4379m  420.7026m -133.9163m  677.0568m 
 -392.07475m  122.4618m  420.6419m -133.8355m  676.9392m 
 -391.97475m  122.4857m  420.5812m -133.7548m  676.8217m 
 -391.87475m  122.5096m  420.5205m -133.6741m  676.7042m 
 -391.77475m  122.5335m  420.4597m -133.5934m  676.5867m 
 -391.67475m  122.5575m  420.3989m -133.5128m  676.4692m 
 -391.57475m  122.5815m  420.3381m -133.4322m  676.3518m 
 -391.47475m  122.6055m  420.2773m -133.3516m  676.2343m 
 -391.37475m  122.6295m  420.2165m -133.2710m  676.1169m 
 -391.27475m  122.6535m  420.1556m -133.1905m  675.9995m 
 -391.17475m  122.6775m  420.0947m -133.1099m  675.8822m 
 -391.07475m  122.7016m  420.0338m -133.0294m  675.7648m 
 -390.97475m  122.7257m  419.9729m -132.9489m  675.6475m 
 -390.87475m  122.7498m  419.9119m -132.8685m  675.5302m 
 -390.77475m  122.7739m  419.8509m -132.7880m  675.4129m 
 -390.67475m  122.7981m  419.7899m -132.7076m  675.2956m 
 -390.57475m  122.8222m  419.7289m -132.6272m  675.1783m 
 -390.47475m  122.8464m  419.6678m -132.5469m  675.0611m 
 -390.37475m  122.8706m  419.6067m -132.4665m  674.9439m 
 -390.27475m  122.8948m  419.5456m -132.3862m  674.8267m 
 -390.17475m  122.9191m  419.4845m -132.3059m  674.7095m 
 -390.07475m  122.9433m  419.4234m -132.2256m  674.5923m 
 -389.97475m  122.9676m  419.3622m -132.1454m  674.4752m 
 -389.87475m  122.9919m  419.3010m -132.0651m  674.3581m 
 -389.77475m  123.0162m  419.2398m -131.9849m  674.2410m 
 -389.67475m  123.0406m  419.1786m -131.9047m  674.1239m 
 -389.57475m  123.0649m  419.1173m -131.8246m  674.0068m 
 -389.47475m  123.0893m  419.0560m -131.7444m  673.8898m 
 -389.37475m  123.1137m  418.9947m -131.6643m  673.7727m 
 -389.27475m  123.1381m  418.9334m -131.5842m  673.6557m 
 -389.17475m  123.1625m  418.8720m -131.5042m  673.5388m 
 -389.07475m  123.1870m  418.8106m -131.4241m  673.4218m 
 -388.97475m  123.2115m  418.7492m -131.3441m  673.3048m 
 -388.87475m  123.2360m  418.6878m -131.2641m  673.1879m 
 -388.77475m  123.2605m  418.6264m -131.1841m  673.0710m 
 -388.67475m  123.2850m  418.5649m -131.1042m  672.9541m 
 -388.57475m  123.3096m  418.5034m -131.0243m  672.8373m 
 -388.47475m  123.3341m  418.4419m -130.9444m  672.7204m 
 -388.37475m  123.3587m  418.3804m -130.8645m  672.6036m 
 -388.27475m  123.3834m  418.3188m -130.7846m  672.4868m 
 -388.17475m  123.4080m  418.2572m -130.7048m  672.3700m 
 -388.07475m  123.4326m  418.1956m -130.6250m  672.2532m 
 -387.97475m  123.4573m  418.1340m -130.5452m  672.1365m 
 -387.87475m  123.4820m  418.0723m -130.4654m  672.0197m 
 -387.77475m  123.5067m  418.0106m -130.3857m  671.9030m 
 -387.67475m  123.5315m  417.9489m -130.3059m  671.7863m 
 -387.57475m  123.5562m  417.8872m -130.2263m  671.6697m 
 -387.47475m  123.5810m  417.8255m -130.1466m  671.5530m 
 -387.37475m  123.6058m  417.7637m -130.0669m  671.4364m 
 -387.27475m  123.6306m  417.7019m -129.9873m  671.3198m 
 -387.17475m  123.6554m  417.6401m -129.9077m  671.2032m 
 -387.07475m  123.6803m  417.5782m -129.8281m  671.0866m 
 -386.97475m  123.7051m  417.5164m -129.7486m  670.9701m 
 -386.87475m  123.7300m  417.4545m -129.6690m  670.8535m 
 -386.77475m  123.7549m  417.3926m -129.5895m  670.7370m 
 -386.67475m  123.7799m  417.3307m -129.5100m  670.6205m 
 -386.57475m  123.8048m  417.2687m -129.4306m  670.5041m 
 -386.47475m  123.8298m  417.2067m -129.3511m  670.3876m 
 -386.37475m  123.8548m  417.1447m -129.2717m  670.2712m 
 -386.27475m  123.8798m  417.0827m -129.1923m  670.1548m 
 -386.17475m  123.9048m  417.0206m -129.1129m  670.0384m 
 -386.07475m  123.9299m  416.9586m -129.0336m  669.9220m 
 -385.97475m  123.9549m  416.8965m -128.9542m  669.8057m 
 -385.87475m  123.9800m  416.8344m -128.8749m  669.6893m 
 -385.77475m  124.0052m  416.7722m -128.7957m  669.5730m 
 -385.67475m  124.0303m  416.7101m -128.7164m  669.4567m 
 -385.57475m  124.0554m  416.6479m -128.6372m  669.3405m 
 -385.47475m  124.0806m  416.5857m -128.5579m  669.2242m 
 -385.37475m  124.1058m  416.5234m -128.4788m  669.1080m 
 -385.27475m  124.1310m  416.4612m -128.3996m  668.9918m 
 -385.17475m  124.1562m  416.3989m -128.3205m  668.8756m 
 -385.07475m  124.1815m  416.3366m -128.2413m  668.7594m 
 -384.97475m  124.2068m  416.2743m -128.1622m  668.6433m 
 -384.87475m  124.2321m  416.2119m -128.0832m  668.5272m 
 -384.77475m  124.2574m  416.1496m -128.0041m  668.4111m 
 -384.67475m  124.2827m  416.0872m -127.9251m  668.2950m 
 -384.57475m  124.3081m  416.0247m -127.8461m  668.1789m 
 -384.47475m  124.3335m  415.9623m -127.7671m  668.0629m 
 -384.37475m  124.3588m  415.8998m -127.6881m  667.9468m 
 -384.27475m  124.3843m  415.8374m -127.6092m  667.8308m 
 -384.17475m  124.4097m  415.7748m -127.5303m  667.7148m 
 -384.07475m  124.4352m  415.7123m -127.4514m  667.5989m 
 -383.97475m  124.4606m  415.6498m -127.3725m  667.4829m 
 -383.87475m  124.4861m  415.5872m -127.2937m  667.3670m 
 -383.77475m  124.5116m  415.5246m -127.2149m  667.2511m 
 -383.67475m  124.5372m  415.4620m -127.1361m  667.1352m 
 -383.57475m  124.5627m  415.3993m -127.0573m  667.0194m 
 -383.47475m  124.5883m  415.3366m -126.9786m  666.9035m 
 -383.37475m  124.6139m  415.2739m -126.8998m  666.7877m 
 -383.27475m  124.6395m  415.2112m -126.8211m  666.6719m 
 -383.17475m  124.6652m  415.1485m -126.7424m  666.5561m 
 -383.07475m  124.6909m  415.0857m -126.6638m  666.4404m 
 -382.97475m  124.7165m  415.0229m -126.5851m  666.3246m 
 -382.87475m  124.7422m  414.9601m -126.5065m  666.2089m 
 -382.77475m  124.7680m  414.8973m -126.4279m  666.0932m 
 -382.67475m  124.7937m  414.8344m -126.3494m  665.9775m 
 -382.57475m  124.8195m  414.7716m -126.2708m  665.8619m 
 -382.47475m  124.8453m  414.7087m -126.1923m  665.7462m 
 -382.37475m  124.8711m  414.6457m -126.1138m  665.6306m 
 -382.27475m  124.8969m  414.5828m -126.0353m  665.5150m 
 -382.17475m  124.9227m  414.5198m -125.9569m  665.3995m 
 -382.07475m  124.9486m  414.4568m -125.8785m  665.2839m 
 -381.97475m  124.9745m  414.3938m -125.8001m  665.1684m 
 -381.87475m  125.0004m  414.3308m -125.7217m  665.0529m 
 -381.77475m  125.0263m  414.2677m -125.6433m  664.9374m 
 -381.67475m  125.0523m  414.2046m -125.5650m  664.8219m 
 -381.57475m  125.0783m  414.1415m -125.4867m  664.7064m 
 -381.47475m  125.1043m  414.0784m -125.4084m  664.5910m 
 -381.37475m  125.1303m  414.0152m -125.3301m  664.4756m 
 -381.27475m  125.1563m  413.9521m -125.2519m  664.3602m 
 -381.17475m  125.1824m  413.8889m -125.1736m  664.2449m 
 -381.07475m  125.2084m  413.8256m -125.0954m  664.1295m 
 -380.97475m  125.2345m  413.7624m -125.0173m  664.0142m 
 -380.87475m  125.2607m  413.6991m -124.9391m  663.8989m 
 -380.77475m  125.2868m  413.6358m -124.8610m  663.7836m 
 -380.67475m  125.3130m  413.5725m -124.7829m  663.6684m 
 -380.57475m  125.3391m  413.5092m -124.7048m  663.5531m 
 -380.47475m  125.3653m  413.4458m -124.6267m  663.4379m 
 -380.37475m  125.3916m  413.3824m -124.5487m  663.3227m 
 -380.27475m  125.4178m  413.3190m -124.4707m  663.2075m 
 -380.17475m  125.4441m  413.2556m -124.3927m  663.0924m 
 -380.07475m  125.4704m  413.1921m -124.3147m  662.9772m 
 -379.97475m  125.4967m  413.1287m -124.2368m  662.8621m 
 -379.87475m  125.5230m  413.0652m -124.1589m  662.7470m 
 -379.77475m  125.5494m  413.0016m -124.0810m  662.6320m 
 -379.67475m  125.5757m  412.9381m -124.0031m  662.5169m 
 -379.57475m  125.6021m  412.8745m -123.9252m  662.4019m 
 -379.47475m  125.6285m  412.8109m -123.8474m  662.2869m 
 -379.37475m  125.6550m  412.7473m -123.7696m  662.1719m 
 -379.27475m  125.6814m  412.6837m -123.6918m  662.0569m 
 -379.17475m  125.7079m  412.6200m -123.6140m  661.9420m 
 -379.07475m  125.7344m  412.5564m -123.5363m  661.8270m 
 -378.97475m  125.7609m  412.4926m -123.4586m  661.7121m 
 -378.87475m  125.7875m  412.4289m -123.3809m  661.5973m 
 -378.77475m  125.8140m  412.3652m -123.3032m  661.4824m 
 -378.67475m  125.8406m  412.3014m -123.2256m  661.3676m 
 -378.57475m  125.8672m  412.2376m -123.1479m  661.2528m 
 -378.47475m  125.8938m  412.1738m -123.0703m  661.1380m 
 -378.37475m  125.9205m  412.1099m -122.9928m  661.0232m 
 -378.27475m  125.9472m  412.0461m -122.9152m  660.9084m 
 -378.17475m  125.9738m  411.9822m -122.8377m  660.7937m 
 -378.07475m  126.0006m  411.9183m -122.7602m  660.6790m 
 -377.97475m  126.0273m  411.8543m -122.6827m  660.5643m 
 -377.87475m  126.0540m  411.7904m -122.6052m  660.4496m 
 -377.77475m  126.0808m  411.7264m -122.5278m  660.3350m 
 -377.67475m  126.1076m  411.6624m -122.4504m  660.2204m 
 -377.57475m  126.1344m  411.5984m -122.3730m  660.1058m 
 -377.47475m  126.1613m  411.5343m -122.2956m  659.9912m 
 -377.37475m  126.1881m  411.4703m -122.2182m  659.8766m 
 -377.27475m  126.2150m  411.4062m -122.1409m  659.7621m 
 -377.17475m  126.2419m  411.3420m -122.0636m  659.6476m 
 -377.07475m  126.2689m  411.2779m -121.9863m  659.5331m 
 -376.97475m  126.2958m  411.2137m -121.9091m  659.4186m 
 -376.87475m  126.3228m  411.1496m -121.8318m  659.3042m 
 -376.77475m  126.3498m  411.0853m -121.7546m  659.1897m 
 -376.67475m  126.3768m  411.0211m -121.6774m  659.0753m 
 -376.57475m  126.4038m  410.9569m -121.6003m  658.9609m 
 -376.47475m  126.4309m  410.8926m -121.5231m  658.8466m 
 -376.37475m  126.4579m  410.8283m -121.4460m  658.7322m 
 -376.27475m  126.4850m  410.7640m -121.3689m  658.6179m 
 -376.17475m  126.5122m  410.6996m -121.2918m  658.5036m 
 -376.07475m  126.5393m  410.6352m -121.2148m  658.3893m 
 -375.97475m  126.5665m  410.5709m -121.1377m  658.2751m 
 -375.87475m  126.5937m  410.5064m -121.0607m  658.1608m 
 -375.77475m  126.6209m  410.4420m -120.9837m  658.0466m 
 -375.67475m  126.6481m  410.3775m -120.9068m  657.9324m 
 -375.57475m  126.6753m  410.3131m -120.8298m  657.8182m 
 -375.47475m  126.7026m  410.2486m -120.7529m  657.7041m 
 -375.37475m  126.7299m  410.1840m -120.6760m  657.5900m 
 -375.27475m  126.7572m  410.1195m -120.5992m  657.4759m 
 -375.17475m  126.7846m  410.0549m -120.5223m  657.3618m 
 -375.07475m  126.8119m  409.9903m -120.4455m  657.2477m 
 -374.97475m  126.8393m  409.9257m -120.3687m  657.1337m 
 -374.87475m  126.8667m  409.8610m -120.2919m  657.0197m 
 -374.77475m  126.8941m  409.7964m -120.2151m  656.9057m 
 -374.67475m  126.9216m  409.7317m -120.1384m  656.7917m 
 -374.57475m  126.9491m  409.6670m -120.0617m  656.6778m 
 -374.47475m  126.9766m  409.6023m -119.9850m  656.5638m 
 -374.37475m  127.0041m  409.5375m -119.9083m  656.4499m 
 -374.27475m  127.0316m  409.4727m -119.8317m  656.3360m 
 -374.17475m  127.0592m  409.4079m -119.7551m  656.2222m 
 -374.07475m  127.0867m  409.3431m -119.6785m  656.1083m 
 -373.97475m  127.1144m  409.2782m -119.6019m  655.9945m 
 -373.87475m  127.1420m  409.2134m -119.5254m  655.8807m 
 -373.77475m  127.1696m  409.1485m -119.4488m  655.7669m 
 -373.67475m  127.1973m  409.0836m -119.3723m  655.6532m 
 -373.57475m  127.2250m  409.0186m -119.2958m  655.5395m 
 -373.47475m  127.2527m  408.9537m -119.2194m  655.4257m 
 -373.37475m  127.2804m  408.8887m -119.1429m  655.3121m 
 -373.27475m  127.3082m  408.8237m -119.0665m  655.1984m 
 -373.17475m  127.3360m  408.7587m -118.9901m  655.0848m 
 -373.07475m  127.3638m  408.6936m -118.9138m  654.9711m 
 -372.97475m  127.3916m  408.6285m -118.8374m  654.8575m 
 -372.87475m  127.4194m  408.5634m -118.7611m  654.7440m 
 -372.77475m  127.4473m  408.4983m -118.6848m  654.6304m 
 -372.67475m  127.4752m  408.4332m -118.6085m  654.5169m 
 -372.57475m  127.5031m  408.3680m -118.5323m  654.4034m 
 -372.47475m  127.5310m  408.3028m -118.4560m  654.2899m 
 -372.37475m  127.5590m  408.2376m -118.3798m  654.1764m 
 -372.27475m  127.5870m  408.1724m -118.3036m  654.0630m 
 -372.17475m  127.6150m  408.1071m -118.2275m  653.9496m 
 -372.07475m  127.6430m  408.0418m -118.1513m  653.8362m 
 -371.97475m  127.6711m  407.9765m -118.0752m  653.7228m 
 -371.87475m  127.6991m  407.9112m -117.9991m  653.6094m 
 -371.77475m  127.7272m  407.8459m -117.9230m  653.4961m 
 -371.67475m  127.7553m  407.7805m -117.8470m  653.3828m 
 -371.57475m  127.7835m  407.7151m -117.7709m  653.2695m 
 -371.47475m  127.8116m  407.6497m -117.6949m  653.1562m 
 -371.37475m  127.8398m  407.5843m -117.6189m  653.0430m 
 -371.27475m  127.8680m  407.5188m -117.5430m  652.9298m 
 -371.17475m  127.8962m  407.4533m -117.4670m  652.8166m 
 -371.07475m  127.9245m  407.3878m -117.3911m  652.7034m 
 -370.97475m  127.9528m  407.3223m -117.3152m  652.5903m 
 -370.87475m  127.9810m  407.2567m -117.2394m  652.4771m 
 -370.77475m  128.0094m  407.1912m -117.1635m  652.3640m 
 -370.67475m  128.0377m  407.1256m -117.0877m  652.2510m 
 -370.57475m  128.0661m  407.0600m -117.0119m  652.1379m 
 -370.47475m  128.0944m  406.9943m -116.9361m  652.0249m 
 -370.37475m  128.1229m  406.9286m -116.8603m  651.9118m 
 -370.27475m  128.1513m  406.8630m -116.7846m  651.7989m 
 -370.17475m  128.1797m  406.7973m -116.7089m  651.6859m 
 -370.07475m  128.2082m  406.7315m -116.6332m  651.5729m 
 -369.97475m  128.2367m  406.6658m -116.5575m  651.4600m 
 -369.87475m  128.2652m  406.6000m -116.4819m  651.3471m 
 -369.77475m  128.2938m  406.5342m -116.4063m  651.2342m 
 -369.67475m  128.3223m  406.4684m -116.3307m  651.1214m 
 -369.57475m  128.3509m  406.4025m -116.2551m  651.0085m 
 -369.47475m  128.3795m  406.3367m -116.1795m  650.8957m 
 -369.37475m  128.4082m  406.2708m -116.1040m  650.7829m 
 -369.27475m  128.4368m  406.2049m -116.0285m  650.6702m 
 -369.17475m  128.4655m  406.1389m -115.9530m  650.5574m 
 -369.07475m  128.4942m  406.0730m -115.8775m  650.4447m 
 -368.97475m  128.5229m  406.0070m -115.8021m  650.3320m 
 -368.87475m  128.5517m  405.9410m -115.7267m  650.2194m 
 -368.77475m  128.5805m  405.8750m -115.6513m  650.1067m 
 -368.67475m  128.6093m  405.8089m -115.5759m  649.9941m 
 -368.57475m  128.6381m  405.7429m -115.5005m  649.8815m 
 -368.47475m  128.6669m  405.6768m -115.4252m  649.7689m 
 -368.37475m  128.6958m  405.6107m -115.3499m  649.6563m 
 -368.27475m  128.7247m  405.5445m -115.2746m  649.5438m 
 -368.17475m  128.7536m  405.4784m -115.1994m  649.4313m 
 -368.07475m  128.7825m  405.4122m -115.1241m  649.3188m 
 -367.97475m  128.8115m  405.3460m -115.0489m  649.2063m 
 -367.87475m  128.8404m  405.2797m -114.9737m  649.0939m 
 -367.77475m  128.8694m  405.2135m -114.8985m  648.9815m 
 -367.67475m  128.8985m  405.1472m -114.8234m  648.8691m 
 -367.57475m  128.9275m  405.0809m -114.7483m  648.7567m 
 -367.47475m  128.9566m  405.0146m -114.6732m  648.6443m 
 -367.37475m  128.9857m  404.9483m -114.5981m  648.5320m 
 -367.27475m  129.0148m  404.8819m -114.5230m  648.4197m 
 -367.17475m  129.0439m  404.8155m -114.4480m  648.3074m 
 -367.07475m  129.0731m  404.7491m -114.3730m  648.1952m 
 -366.97475m  129.1023m  404.6827m -114.2980m  648.0829m 
 -366.87475m  129.1315m  404.6162m -114.2230m  647.9707m 
 -366.77475m  129.1607m  404.5498m -114.1481m  647.8585m 
 -366.67475m  129.1900m  404.4833m -114.0731m  647.7464m 
 -366.57475m  129.2192m  404.4168m -113.9982m  647.6342m 
 -366.47475m  129.2485m  404.3502m -113.9233m  647.5221m 
 -366.37475m  129.2779m  404.2837m -113.8485m  647.4100m 
 -366.27475m  129.3072m  404.2171m -113.7736m  647.2979m 
 -366.17475m  129.3366m  404.1505m -113.6988m  647.1859m 
 -366.07475m  129.3660m  404.0838m -113.6240m  647.0739m 
 -365.97475m  129.3954m  404.0172m -113.5493m  646.9618m 
 -365.87475m  129.4248m  403.9505m -113.4745m  646.8499m 
 -365.77475m  129.4543m  403.8838m -113.3998m  646.7379m 
 -365.67475m  129.4838m  403.8171m -113.3251m  646.6260m 
 -365.57475m  129.5133m  403.7503m -113.2504m  646.5141m 
 -365.47475m  129.5428m  403.6836m -113.1758m  646.4022m 
 -365.37475m  129.5724m  403.6168m -113.1011m  646.2903m 
 -365.27475m  129.6020m  403.5500m -113.0265m  646.1785m 
 -365.17475m  129.6316m  403.4832m -112.9519m  646.0667m 
 -365.07475m  129.6612m  403.4163m -112.8774m  645.9549m 
 -364.97475m  129.6909m  403.3494m -112.8028m  645.8431m 
 -364.87475m  129.7205m  403.2825m -112.7283m  645.7314m 
 -364.77475m  129.7502m  403.2156m -112.6538m  645.6196m 
 -364.67475m  129.7800m  403.1487m -112.5793m  645.5079m 
 -364.57475m  129.8097m  403.0817m -112.5049m  645.3963m 
 -364.47475m  129.8395m  403.0147m -112.4304m  645.2846m 
 -364.37475m  129.8693m  402.9477m -112.3560m  645.1730m 
 -364.27475m  129.8991m  402.8807m -112.2816m  645.0614m 
 -364.17475m  129.9289m  402.8136m -112.2073m  644.9498m 
 -364.07475m  129.9588m  402.7465m -112.1329m  644.8382m 
 -363.97475m  129.9887m  402.6794m -112.0586m  644.7267m 
 -363.87475m  130.0186m  402.6123m -111.9843m  644.6152m 
 -363.77475m  130.0485m  402.5452m -111.9100m  644.5037m 
 -363.67475m  130.0785m  402.4780m -111.8358m  644.3922m 
 -363.57475m  130.1085m  402.4108m -111.7615m  644.2808m 
 -363.47475m  130.1385m  402.3436m -111.6873m  644.1694m 
 -363.37475m  130.1685m  402.2764m -111.6131m  644.0580m 
 -363.27475m  130.1986m  402.2091m -111.5390m  643.9466m 
 -363.17475m  130.2286m  402.1418m -111.4648m  643.8353m 
 -363.07475m  130.2587m  402.0745m -111.3907m  643.7240m 
 -362.97475m  130.2889m  402.0072m -111.3166m  643.6127m 
 -362.87475m  130.3190m  401.9399m -111.2425m  643.5014m 
 -362.77475m  130.3492m  401.8725m -111.1685m  643.3902m 
 -362.67475m  130.3794m  401.8051m -111.0944m  643.2789m 
 -362.57475m  130.4096m  401.7377m -111.0204m  643.1677m 
 -362.47475m  130.4399m  401.6703m -110.9464m  643.0566m 
 -362.37475m  130.4701m  401.6028m -110.8725m  642.9454m 
 -362.27475m  130.5004m  401.5353m -110.7985m  642.8343m 
 -362.17475m  130.5307m  401.4678m -110.7246m  642.7232m 
 -362.07475m  130.5611m  401.4003m -110.6507m  642.6121m 
 -361.97475m  130.5914m  401.3328m -110.5768m  642.5010m 
 -361.87475m  130.6218m  401.2652m -110.5030m  642.3900m 
 -361.77475m  130.6522m  401.1976m -110.4291m  642.2790m 
 -361.67475m  130.6827m  401.1300m -110.3553m  642.1680m 
 -361.57475m  130.7131m  401.0624m -110.2815m  642.0570m 
 -361.47475m  130.7436m  400.9947m -110.2078m  641.9461m 
 -361.37475m  130.7741m  400.9271m -110.1340m  641.8352m 
 -361.27475m  130.8047m  400.8594m -110.0603m  641.7243m 
 -361.17475m  130.8352m  400.7916m -109.9866m  641.6134m 
 -361.07475m  130.8658m  400.7239m -109.9129m  641.5026m 
 -360.97475m  130.8964m  400.6561m -109.8392m  641.3918m 
 -360.87475m  130.9270m  400.5883m -109.7656m  641.2810m 
 -360.77475m  130.9577m  400.5205m -109.6920m  641.1702m 
 -360.67475m  130.9884m  400.4527m -109.6184m  641.0595m 
 -360.57475m  131.0191m  400.3849m -109.5448m  640.9487m 
 -360.47475m  131.0498m  400.3170m -109.4713m  640.8381m 
 -360.37475m  131.0805m  400.2491m -109.3978m  640.7274m 
 -360.27475m  131.1113m  400.1812m -109.3243m  640.6167m 
 -360.17475m  131.1421m  400.1132m -109.2508m  640.5061m 
 -360.07475m  131.1729m  400.0453m -109.1773m  640.3955m 
[...]
  469.52525m  700.0000m   53.9624n  664.0090m   35.9910m 
  469.62525m  700.0000m   53.6719n  664.1505m   35.8496m 
  469.72525m  700.0000m   53.3829n  664.2919m   35.7081m 
  469.82525m  700.0000m   53.0957n  664.4333m   35.5667m 
  469.92525m  700.0000m   52.8100n  664.5747m   35.4253m 
  470.02525m  700.0000m   52.5259n  664.7161m   35.2839m 
  470.12525m  700.0000m   52.2434n  664.8576m   35.1425m 
  470.22525m  700.0000m   51.9625n  664.9990m   35.0010m 
  470.32525m  700.0000m   51.6832n  665.1404m   34.8596m 
  470.42525m  700.0000m   51.4055n  665.2818m   34.7182m 
  470.52525m  700.0000m   51.1293n  665.4232m   34.5768m 
  470.62525m  700.0000m   50.8546n  665.5647m   34.4354m 
  470.72525m  700.0000m   50.5815n  665.7061m   34.2939m 
  470.82525m  700.0000m   50.3099n  665.8475m   34.1525m 
  470.92525m  700.0000m   50.0399n  665.9889m   34.0111m 
  471.02525m  700.0000m   49.7714n  666.1304m   33.8697m 
  471.12525m  700.0000m   49.5043n  666.2718m   33.7283m 
  471.22525m  700.0000m   49.2388n  666.4132m   33.5868m 
  471.32525m  700.0000m   48.9748n  666.5546m   33.4454m 
  471.42525m  700.0000m   48.7122n  666.6960m   33.3040m 
  471.52525m  700.0000m   48.4511n  666.8375m   33.1626m 
  471.62525m  700.0000m   48.1915n  666.9789m   33.0211m 
  471.72525m  700.0000m   47.9333n  667.1203m   32.8797m 
  471.82525m  700.0000m   47.6766n  667.2617m   32.7383m 
  471.92525m  700.0000m   47.4213n  667.4031m   32.5969m 
  472.02525m  700.0000m   47.1675n  667.5446m   32.4555m 
  472.12525m  700.0000m   46.9151n  667.6860m   32.3140m 
  472.22525m  700.0000m   46.6641n  667.8274m   32.1726m 
  472.32525m  700.0000m   46.4145n  667.9688m   32.0312m 
  472.42525m  700.0000m   46.1663n  668.1102m   31.8898m 
  472.52525m  700.0000m   45.9195n  668.2517m   31.7484m 
  472.62525m  700.0000m   45.6741n  668.3931m   31.6069m 
  472.72525m  700.0000m   45.4300n  668.5345m   31.4655m 
  472.82525m  700.0000m   45.1874n  668.6759m   31.3241m 
  472.92525m  700.0000m   44.9461n  668.8174m   31.1827m 
  473.02525m  700.0000m   44.7061n  668.9588m   31.0412m 
  473.12525m  700.0000m   44.4675n  669.1002m   30.8998m 
  473.22525m  700.0000m   44.2302n  669.2416m   30.7584m 
  473.32525m  700.0000m   43.9943n  669.3830m   30.6170m 
  473.42525m  700.0000m   43.7597n  669.5245m   30.4756m 
  473.52525m  700.0000m   43.5264n  669.6659m   30.3341m 
  473.62525m  700.0000m   43.2944n  669.8073m   30.1927m 
  473.72525m  700.0000m   43.0637n  669.9487m   30.0513m 
  473.82525m  700.0000m   42.8343n  670.0901m   29.9099m 
  473.92525m  700.0000m   42.6062n  670.2316m   29.7685m 
  474.02525m  700.0000m   42.3793n  670.3730m   29.6270m 
  474.12525m  700.0000m   42.1538n  670.5144m   29.4856m 
  474.22525m  700.0000m   41.9295n  670.6558m   29.3442m 
  474.32525m  700.0000m   41.7065n  670.7972m   29.2028m 
  474.42525m  700.0000m   41.4847n  670.9387m   29.0614m 
  474.52525m  700.0000m   41.2641n  671.0801m   28.9199m 
  474.62525m  700.0000m   41.0448n  671.2215m   28.7785m 
  474.72525m  700.0000m   40.8268n  671.3629m   28.6371m 
  474.82525m  700.0000m   40.6099n  671.5044m   28.4957m 
  474.92525m  700.0000m   40.3943n  671.6458m   28.3542m 
  475.02525m  700.0000m   40.1799n  671.7872m   28.2128m 
  475.12525m  700.0000m   39.9667n  671.9286m   28.0714m 
  475.22525m  700.0000m   39.7546n  672.0700m   27.9300m 
  475.32525m  700.0000m   39.5438n  672.2115m   27.7886m 
  475.42525m  700.0000m   39.3342n  672.3529m   27.6471m 
  475.52525m  700.0000m   39.1257n  672.4943m   27.5057m 
  475.62525m  700.0000m   38.9184n  672.6357m   27.3643m 
  475.72525m  700.0000m   38.7122n  672.7771m   27.2229m 
  475.82525m  700.0000m   38.5072n  672.9186m   27.0815m 
  475.92525m  700.0000m   38.3034n  673.0600m   26.9400m 
  476.02525m  700.0000m   38.1007n  673.2014m   26.7986m 
  476.12525m  700.0000m   37.8992n  673.3428m   26.6572m 
  476.22525m  700.0000m   37.6987n  673.4842m   26.5158m 
  476.32525m  700.0000m   37.4994n  673.6257m   26.3743m 
  476.42525m  700.0000m   37.3013n  673.7671m   26.2329m 
  476.52525m  700.0000m   37.1042n  673.9085m   26.0915m 
  476.62525m  700.0000m   36.9082n  674.0499m   25.9501m 
  476.72525m  700.0000m   36.7134n  674.1914m   25.8087m 
  476.82525m  700.0000m   36.5196n  674.3328m   25.6672m 
  476.92525m  700.0000m   36.3269n  674.4742m   25.5258m 
  477.02525m  700.0000m   36.1353n  674.6156m   25.3844m 
  477.12525m  700.0000m   35.9448n  674.7570m   25.2430m 
  477.22525m  700.0000m   35.7553n  674.8985m   25.1016m 
  477.32525m  700.0000m   35.5669n  675.0399m   24.9601m 
  477.42525m  700.0000m   35.3796n  675.1813m   24.8187m 
  477.52525m  700.0000m   35.1933n  675.3227m   24.6773m 
  477.62525m  700.0000m   35.0081n  675.4641m   24.5359m 
  477.72525m  700.0000m   34.8239n  675.6056m   24.3945m 
  477.82525m  700.0000m   34.6407n  675.7470m   24.2530m 
  477.92525m  700.0000m   34.4586n  675.8884m   24.1116m 
  478.02525m  700.0000m   34.2774n  676.0298m   23.9702m 
  478.12525m  700.0000m   34.0973n  676.1713m   23.8288m 
  478.22525m  700.0000m   33.9182n  676.3127m   23.6873m 
  478.32525m  700.0000m   33.7401n  676.4541m   23.5459m 
  478.42525m  700.0000m   33.5631n  676.5955m   23.4045m 
  478.52525m  700.0000m   33.3870n  676.7369m   23.2631m 
  478.62525m  700.0000m   33.2119n  676.8784m   23.1217m 
  478.72525m  700.0000m   33.0377n  677.0198m   22.9802m 
  478.82525m  700.0000m   32.8646n  677.1612m   22.8388m 
  478.92525m  700.0000m   32.6924n  677.3026m   22.6974m 
  479.02525m  700.0000m   32.5212n  677.4440m   22.5560m 
  479.12525m  700.0000m   32.3509n  677.5855m   22.4146m 
  479.22525m  700.0000m   32.1817n  677.7269m   22.2731m 
  479.32525m  700.0000m   32.0133n  677.8683m   22.1317m 
  479.42525m  700.0000m   31.8459n  678.0097m   21.9903m 
  479.52525m  700.0000m   31.6795n  678.1511m   21.8489m 
  479.62525m  700.0000m   31.5139n  678.2926m   21.7074m 
  479.72525m  700.0000m   31.3493n  678.4340m   21.5660m 
  479.82525m  700.0000m   31.1857n  678.5754m   21.4246m 
  479.92525m  700.0000m   31.0229n  678.7168m   21.2832m 
  480.02525m  700.0000m   30.8611n  678.8583m   21.1418m 
  480.12525m  700.0000m   30.7001n  678.9997m   21.0003m 
  480.22525m  700.0000m   30.5401n  679.1411m   20.8589m 
  480.32525m  700.0000m   30.3810n  679.2825m   20.7175m 
  480.42525m  700.0000m   30.2227n  679.4239m   20.5761m 
  480.52525m  700.0000m   30.0654n  679.5654m   20.4347m 
  480.62525m  700.0000m   29.9089n  679.7068m   20.2932m 
  480.72525m  700.0000m   29.7533n  679.8482m   20.1518m 
  480.82525m  700.0000m   29.5986n  679.9896m   20.0104m 
  480.92525m  700.0000m   29.4447n  680.1310m   19.8690m 
  481.02525m  700.0000m   29.2918n  680.2725m   19.7275m 
  481.12525m  700.0000m   29.1396n  680.4139m   19.5861m 
  481.22525m  700.0000m   28.9884n  680.5553m   19.4447m 
  481.32525m  700.0000m   28.8379n  680.6967m   19.3033m 
  481.42525m  700.0000m   28.6883n  680.8382m   19.1619m 
  481.52525m  700.0000m   28.5396n  680.9796m   19.0204m 
  481.62525m  700.0000m   28.3917n  681.1210m   18.8790m 
  481.72525m  700.0000m   28.2446n  681.2624m   18.7376m 
  481.82525m  700.0000m   28.0984n  681.4038m   18.5962m 
  481.92525m  700.0000m   27.9529n  681.5453m   18.4548m 
  482.02525m  700.0000m   27.8083n  681.6867m   18.3133m 
  482.12525m  700.0000m   27.6645n  681.8281m   18.1719m 
  482.22525m  700.0000m   27.5215n  681.9695m   18.0305m 
  482.32525m  700.0000m   27.3793n  682.1109m   17.8891m 
  482.42525m  700.0000m   27.2380n  682.2524m   17.7477m 
  482.52525m  700.0000m   27.0974n  682.3938m   17.6062m 
  482.62525m  700.0000m   26.9575n  682.5352m   17.4648m 
  482.72525m  700.0000m   26.8185n  682.6766m   17.3234m 
  482.82525m  700.0000m   26.6803n  682.8180m   17.1820m 
  482.92525m  700.0000m   26.5428n  682.9595m   17.0405m 
  483.02525m  700.0000m   26.4061n  683.1009m   16.8991m 
  483.12525m  700.0000m   26.2702n  683.2423m   16.7577m 
  483.22525m  700.0000m   26.1350n  683.3837m   16.6163m 
  483.32525m  700.0000m   26.0006n  683.5252m   16.4749m 
  483.42525m  700.0000m   25.8669n  683.6666m   16.3334m 
  483.52525m  700.0000m   25.7340n  683.8080m   16.1920m 
  483.62525m  700.0000m   25.6019n  683.9494m   16.0506m 
  483.72525m  700.0000m   25.4705n  684.0908m   15.9092m 
  483.82525m  700.0000m   25.3398n  684.2323m   15.7678m 
  483.92525m  700.0000m   25.2098n  684.3737m   15.6263m 
  484.02525m  700.0000m   25.0806n  684.5151m   15.4849m 
  484.12525m  700.0000m   24.9521n  684.6565m   15.3435m 
  484.22525m  700.0000m   24.8244n  684.7979m   15.2021m 
  484.32525m  700.0000m   24.6973n  684.9394m   15.0606m 
  484.42525m  700.0000m   24.5710n  685.0808m   14.9192m 
  484.52525m  700.0000m   24.4454n  685.2222m   14.7778m 
  484.62525m  700.0000m   24.3204n  685.3636m   14.6364m 
  484.72525m  700.0000m   24.1962n  685.5051m   14.4950m 
  484.82525m  700.0000m   24.0727n  685.6465m   14.3535m 
  484.92525m  700.0000m   23.9499n  685.7879m   14.2121m 
  485.02525m  700.0000m   23.8277n  685.9293m   14.0707m 
  485.12525m  700.0000m   23.7063n  686.0707m   13.9293m 
  485.22525m  700.0000m   23.5855n  686.2122m   13.7879m 
  485.32525m  700.0000m   23.4654n  686.3536m   13.6464m 
  485.42525m  700.0000m   23.3460n  686.4950m   13.5050m 
  485.52525m  700.0000m   23.2272n  686.6364m   13.3636m 
  485.62525m  700.0000m   23.1092n  686.7778m   13.2222m 
  485.72525m  700.0000m   22.9917n  686.9193m   13.0807m 
  485.82525m  700.0000m   22.8750n  687.0607m   12.9393m 
  485.92525m  700.0000m   22.7589n  687.2021m   12.7979m 
  486.02525m  700.0000m   22.6434n  687.3435m   12.6565m 
  486.12525m  700.0000m   22.5286n  687.4849m   12.5151m 
  486.22525m  700.0000m   22.4145n  687.6264m   12.3736m 
  486.32525m  700.0000m   22.3009n  687.7678m   12.2322m 
  486.42525m  700.0000m   22.1881n  687.9092m   12.0908m 
  486.52525m  700.0000m   22.0758n  688.0506m   11.9494m 
  486.62525m  700.0000m   21.9642n  688.1921m   11.8080m 
  486.72525m  700.0000m   21.8532n  688.3335m   11.6665m 
  486.82525m  700.0000m   21.7429n  688.4749m   11.5251m 
  486.92525m  700.0000m   21.6331n  688.6163m   11.3837m 
  487.02525m  700.0000m   21.5240n  688.7577m   11.2423m 
  487.12525m  700.0000m   21.4155n  688.8992m   11.1008m 
  487.22525m  700.0000m   21.3076n  689.0406m   10.9594m 
  487.32525m  700.0000m   21.2003n  689.1820m   10.8180m 
  487.42525m  700.0000m   21.0936n  689.3234m   10.6766m 
  487.52525m  700.0000m   20.9875n  689.4648m   10.5352m 
  487.62525m  700.0000m   20.8820n  689.6063m   10.3937m 
  487.72525m  700.0000m   20.7771n  689.7477m   10.2523m 
  487.82525m  700.0000m   20.6728n  689.8891m   10.1109m 
  487.92525m  700.0000m   20.5690n  690.0305m    9.9695m 
  488.02525m  700.0000m   20.4659n  690.1720m    9.8281m 
  488.12525m  700.0000m   20.3633n  690.3134m    9.6866m 
  488.22525m  700.0000m   20.2613n  690.4548m    9.5452m 
  488.32525m  700.0000m   20.1599n  690.5962m    9.4038m 
  488.42525m  700.0000m   20.0590n  690.7376m    9.2624m 
  488.52525m  700.0000m   19.9588n  690.8791m    9.1210m 
  488.62525m  700.0000m   19.8590n  691.0205m    8.9795m 
  488.72525m  700.0000m   19.7599n  691.1619m    8.8381m 
  488.82525m  700.0000m   19.6613n  691.3033m    8.6967m 
  488.92525m  700.0000m   19.5632n  691.4447m    8.5553m 
  489.02525m  700.0000m   19.4657n  691.5862m    8.4138m 
  489.12525m  700.0000m   19.3688n  691.7276m    8.2724m 
  489.22525m  700.0000m   19.2724n  691.8690m    8.1310m 
  489.32525m  700.0000m   19.1765n  692.0104m    7.9896m 
  489.42525m  700.0000m   19.0812n  692.1518m    7.8482m 
  489.52525m  700.0000m   18.9864n  692.2933m    7.7067m 
  489.62525m  700.0000m   18.8922n  692.4347m    7.5653m 
  489.72525m  700.0000m   18.7984n  692.5761m    7.4239m 
  489.82525m  700.0000m   18.7053n  692.7175m    7.2825m 
  489.92525m  700.0000m   18.6126n  692.8590m    7.1411m 
  490.02525m  700.0000m   18.5204n  693.0004m    6.9996m 
  490.12525m  700.0000m   18.4288n  693.1418m    6.8582m 
  490.22525m  700.0000m   18.3377n  693.2832m    6.7168m 
  490.32525m  700.0000m   18.2471n  693.4246m    6.5754m 
  490.42525m  700.0000m   18.1570n  693.5661m    6.4339m 
  490.52525m  700.0000m   18.0674n  693.7075m    6.2925m 
  490.62525m  700.0000m   17.9783n  693.8489m    6.1511m 
  490.72525m  700.0000m   17.8897n  693.9903m    6.0097m 
  490.82525m  700.0000m   17.8016n  694.1317m    5.8683m 
  490.92525m  700.0000m   17.7140n  694.2732m    5.7268m 
  491.02525m  700.0000m   17.6270n  694.4146m    5.5854m 
  491.12525m  700.0000m   17.5403n  694.5560m    5.4440m 
  491.22525m  700.0000m   17.4542n  694.6974m    5.3026m 
  491.32525m  700.0000m   17.3686n  694.8389m    5.1612m 
  491.42525m  700.0000m   17.2834n  694.9803m    5.0197m 
  491.52525m  700.0000m   17.1988n  695.1217m    4.8783m 
  491.62525m  700.0000m   17.1146n  695.2631m    4.7369m 
  491.72525m  700.0000m   17.0308n  695.4045m    4.5955m 
  491.82525m  700.0000m   16.9476n  695.5460m    4.4540m 
  491.92525m  700.0000m   16.8648n  695.6874m    4.3126m 
  492.02525m  700.0000m   16.7825n  695.8288m    4.1712m 
  492.12525m  700.0000m   16.7006n  695.9702m    4.0298m 
  492.22525m  700.0000m   16.6192n  696.1116m    3.8884m 
  492.32525m  700.0000m   16.5383n  696.2531m    3.7469m 
  492.42525m  700.0000m   16.4578n  696.3945m    3.6055m 
  492.52525m  700.0000m   16.3778n  696.5359m    3.4641m 
  492.62525m  700.0000m   16.2982n  696.6773m    3.3227m 
  492.72525m  700.0000m   16.2191n  696.8188m    3.1813m 
  492.82525m  700.0000m   16.1404n  696.9602m    3.0398m 
  492.92525m  700.0000m   16.0621n  697.1016m    2.8984m 
  493.02525m  700.0000m   15.9843n  697.2430m    2.7570m 
  493.12525m  700.0000m   15.9070n  697.3844m    2.6156m 
  493.22525m  700.0000m   15.8301n  697.5259m    2.4741m 
  493.32525m  700.0000m   15.7536n  697.6673m    2.3327m 
  493.42525m  700.0000m   15.6775n  697.8087m    2.1913m 
  493.52525m  700.0000m   15.6019n  697.9501m    2.0499m 
  493.62525m  700.0000m   15.5266n  698.0915m    1.9085m 
  493.72525m  700.0000m   15.4519n  698.2330m    1.7670m 
  493.82525m  700.0000m   15.3775n  698.3744m    1.6256m 
  493.92525m  700.0000m   15.3036n  698.5158m    1.4842m 
  494.02525m  700.0000m   15.2300n  698.6572m    1.3428m 
  494.12525m  700.0000m   15.1569n  698.7986m    1.2014m 
  494.22525m  700.0000m   15.0842n  698.9401m    1.0599m 
  494.32525m  700.0000m   15.0119n  699.0815m  918.5147u 
  494.42525m  700.0000m   14.9400n  699.2229m  777.0934u 
  494.52525m  700.0000m   14.8685n  699.3643m  635.6721u 
  494.62525m  700.0000m   14.7975n  699.5058m  494.2507u 
  494.72525m  700.0000m   14.7268n  699.6472m  352.8294u 
  494.82525m  700.0000m   14.6565n  699.7886m  211.4081u 
  494.92525m  700.0000m   14.5866n  699.9300m   69.9868u 
y
 max_1= -98.9556u    at= 494.9253m
             from=-494.9747m    to= 494.9253m
 max_2= 487.7607m    at= 210.5253m
             from=-494.9747m    to= 494.9253m
 snm= -69.9722u
1****** HSPICE -- Q-2020.03-SP2-2 linux64 (Nov  1 2020) ******                  
 ******  
 .title noise margin in write operation

 ****** operating point information tnom=  25.000 temp=  25.000 ******
 ****** operating point status is all       simulation time is     0.     
    node    =voltage      node    =voltage      node    =voltage

 +0:bl      = 700.0000m 0:blb     = 147.2069n 0:gl      = 114.9636m
 +0:gr      = 373.2764m 0:q       = 373.2764m 0:qb      = 114.9636m
 +0:u       =   0.      0:v1      = 162.5831m 0:v2      = 527.8926m
 +0:vdd     = 700.0000m 0:wl      = 700.0000m 0:x       = 542.0977m


 **** voltage sources

 subckt                                   
 element  0:vu       0:vvdd     0:vwl     
  volts      0.       700.0000m  700.0000m
  current    0.       -15.1691u -448.5955f
  power      0.        10.6184u  314.0169f

     total voltage source power dissipation=   10.6184u       watts



 **** voltage-controlled voltage sources


 subckt                                              
 element  0:eli      0:ev1      0:eri      0:ev2     
  volts    114.9636m  162.5831m  373.2764m  527.8926m
  current  220.1524f    0.        12.4786f    0.     





 **** mosfets


 subckt                                                                    
 element  0:mpr      0:mnr      0:mpl      0:mnl      0:mnpr     0:mnpl    
 model    0:pmos_sra 0:nmos_sra 0:pmos_sra 0:nmos_sra 0:nmos_sra 0:nmos_sra
 region   Subth      Subth      Saturation Subth      Subth      Linear    
  id      -448.4133n  564.6286n  -14.7207u   32.6673p  116.2153n  -14.7207u
  ibs        0.         0.         0.         0.         0.         0.     
  ibd        0.         0.         0.         0.         0.         0.     
  vgs     -326.7236m  373.2764m -585.0364m  114.9636m  326.7236m  585.0364m
  vds     -326.7236m  373.2764m -585.0364m  114.9636m  326.7236m -114.9635m
  vbs     -157.9023m  542.0977m -157.9023m  542.0977m  168.8212m  427.1340m
  vth     -334.8227m  408.4753m -330.3335m  409.8164m  408.7317m  409.8164m
  vdsat    -93.7528m   80.0655m -278.8874m   70.6697m   72.9074m  280.9911m
  vod        8.0992m  -35.1988m -254.7029m -294.8527m  -82.0081m  290.1835m
  beta       1.6413m    2.1736m    1.6413m    2.1736m    2.1736m    2.1736m
  gam eff    0.         0.         0.         0.         0.         0.     
  gm        11.9719u   17.0437u   88.0537u    1.2458n    4.1690u   32.9579u
  gds      276.9647n  265.8642n    5.4493u   47.3951p   66.2843n   97.1000u
  gmb        4.8672p   10.6397p   63.2283p  691.4648a    1.4234p   74.1407p
  cdtot     10.1770a   10.2207a   10.2724a   10.2225a   10.2213a   26.5952a
  cgtot     30.7262a   26.6272a   50.4160a   20.4457a   22.2592a   61.3397a
  cstot     16.9362a   14.3868a   28.0898a   10.2230a   11.4589a   20.7868a
  cbtot      0.         0.         0.         0.         0.         0.     
  cgs       20.6543a   16.4276a   40.3740a   10.2232a   12.0453a   25.2666a
  cgd       10.0719a   10.1996a   10.0420a   10.2225a   10.2138a   36.0731a




          ***** job concluded
 ******  
 .title noise margin in write operation

 ****** job statistics summary tnom=  25.000 temp=  25.000 ******
  
 ******  Machine Information  ******
 CPU:
 model name	: AMD EPYC 7713 64-Core Processor
 cpu MHz	: 1700.000
  
 OS:
 Linux version 3.10.0-1160.88.1.el7.x86_64 (mockbuild@kbuilder.bsys.centos.org) (gcc version 4.8.5 20150623 (Red Hat 4.8.5-44) (GCC) ) #1 SMP Tue Mar 7 15:41:52 UTC 2023


  ******  HSPICE Threads Information  ******

  Command Line Threads Count :     1
  Available CPU Count        :   256
  Actual Threads Count       :     1


  ******  Circuit Statistics  ******
  # nodes       =      13 # elements   =      15
  # resistors   =       0 # capacitors =       2 # inductors   =       0
  # mutual_inds =       0 # vccs       =       0 # vcvs        =       4
  # cccs        =       0 # ccvs       =       0 # volt_srcs   =       3
  # curr_srcs   =       0 # diodes     =       0 # bjts        =       0
  # jfets       =       0 # mosfets    =       6 # U elements  =       0
  # T elements  =       0 # W elements =       0 # B elements  =       0
  # S elements  =       0 # P elements =       0 # va device   =       0
  # vector_srcs =       0 # N elements =       0


  ******  Runtime Statistics (seconds)  ******

  analysis           time    # points   tot. iter  conv.iter
  op point           0.01           1           7
  dc sweep           0.73        9900       29706
  readin             0.01
  errchk             0.00
  setup              0.00
  output             0.00


           peak memory used        406.03 megabytes
           total cpu time            0.82 seconds
           total elapsed time        1.13 seconds
           job started at     15:48:09 03/24/2025
           job ended   at     15:48:10 03/24/2025
           job total runtime         1.13 seconds


 lic: Release hspice token(s) 
 lic: total license checkout elapse time:        0.30(s)
