 ****** HSPICE -- Q-2020.03-SP2-2 linux64 (Nov  1 2020) ******                  
  Copyright (c) 1986 - 2025 by Synopsys, Inc. All Rights Reserved.              
  This software and the associated documentation are proprietary
  to Synopsys, Inc. This software may only be used in accordance
  with the terms and conditions of a written license agreement with
  Synopsys, Inc. All other use, reproduction, or distribution of
  this software is strictly prohibited.
  Input File: SRAM_SNM_SS.sp                                                    
  Command line options: /RAID2/cad/synopsys/hspice/2020.03-sp2-2/hspice/linux64/hspice -i SRAM_SNM_SS.sp -o SRAM_SNM_SS.lis
  Start time: Sun Mar 23 13:18:09 2025
 lic:  
 lic: FLEXlm: SDK_12.6 
 lic: USER:   es25MCS042           HOSTNAME: ee28 
 lic: HOSTID: "d85ed3efc19a"       PID:      109968 
 lic: Using FLEXlm license file: 
 lic: 26585@lshc 
 lic: Checkout 1 hspice 
 lic: License/Maintenance for hspice will expire on 14-may-2025/2024.09 
 lic: 180(in_use)/1100(total) FLOATING license(s) on SERVER 26585@lshc 
 lic:   
  
      
             
 Warning:'Floating bulk' occurs 1 times
 Summary of floating bulk:
 -----------------------
 |Node      |Device    |
 |----------+----------|
 |x         |mpr       |
 -----------------------
              
 *****************************************************************
 ******  option summary
 ******
 runlvl  = 3         bypass  = 2.0000    
 ******
 .title noise margin in hold operation

 ****** dc transfer curves tnom=  25.000 temp=  25.000 ******
x

 volt         voltage    voltage    voltage    voltage   
             q          qb         gl         gr         
 -494.97475m   28.4484n  700.0000m   -7.9117n  700.0000m 
 -494.87475m   28.5786n  700.0000m  141.4134u  699.8586m 
 -494.77475m   28.7096n  700.0000m  282.8347u  699.7172m 
 -494.67475m   28.8414n  700.0000m  424.2561u  699.5758m 
 -494.57475m   28.9739n  700.0000m  565.6774u  699.4343m 
 -494.47475m   29.1072n  700.0000m  707.0987u  699.2929m 
 -494.37475m   29.2412n  700.0000m  848.5201u  699.1515m 
 -494.27475m   29.3761n  700.0000m  989.9414u  699.0101m 
 -494.17475m   29.5117n  700.0000m    1.1314m  698.8687m 
 -494.07475m   29.6481n  700.0000m    1.2728m  698.7272m 
 -493.97475m   29.7853n  700.0000m    1.4142m  698.5858m 
 -493.87475m   29.9233n  700.0000m    1.5556m  698.4444m 
 -493.77475m   30.0621n  700.0000m    1.6970m  698.3030m 
 -493.67475m   30.2017n  700.0000m    1.8385m  698.1616m 
 -493.57475m   30.3421n  700.0000m    1.9799m  698.0201m 
 -493.47475m   30.4833n  700.0000m    2.1213m  697.8787m 
 -493.37475m   30.6254n  700.0000m    2.2627m  697.7373m 
 -493.27475m   30.7682n  700.0000m    2.4042m  697.5959m 
 -493.17475m   30.9120n  700.0000m    2.5456m  697.4544m 
 -493.07475m   31.0565n  700.0000m    2.6870m  697.3130m 
 -492.97475m   31.2019n  700.0000m    2.8284m  697.1716m 
 -492.87475m   31.3481n  700.0000m    2.9698m  697.0302m 
 -492.77475m   31.4951n  700.0000m    3.1113m  696.8888m 
 -492.67475m   31.6431n  700.0000m    3.2527m  696.7473m 
 -492.57475m   31.7918n  700.0000m    3.3941m  696.6059m 
 -492.47475m   31.9415n  700.0000m    3.5355m  696.4645m 
 -492.37475m   32.0920n  700.0000m    3.6769m  696.3231m 
 -492.27475m   32.2434n  700.0000m    3.8184m  696.1817m 
 -492.17475m   32.3957n  700.0000m    3.9598m  696.0402m 
 -492.07475m   32.5488n  700.0000m    4.1012m  695.8988m 
 -491.97475m   32.7028n  700.0000m    4.2426m  695.7574m 
 -491.87475m   32.8578n  700.0000m    4.3841m  695.6160m 
 -491.77475m   33.0136n  700.0000m    4.5255m  695.4745m 
 -491.67475m   33.1703n  700.0000m    4.6669m  695.3331m 
 -491.57475m   33.3280n  700.0000m    4.8083m  695.1917m 
 -491.47475m   33.4865n  700.0000m    4.9497m  695.0503m 
 -491.37475m   33.6460n  700.0000m    5.0912m  694.9089m 
 -491.27475m   33.8064n  700.0000m    5.2326m  694.7674m 
 -491.17475m   33.9678n  700.0000m    5.3740m  694.6260m 
 -491.07475m   34.1300n  700.0000m    5.5154m  694.4846m 
 -490.97475m   34.2933n  700.0000m    5.6568m  694.3432m 
 -490.87475m   34.4574n  700.0000m    5.7983m  694.2018m 
 -490.77475m   34.6225n  700.0000m    5.9397m  694.0603m 
 -490.67475m   34.7886n  700.0000m    6.0811m  693.9189m 
 -490.57475m   34.9556n  700.0000m    6.2225m  693.7775m 
 -490.47475m   35.1237n  700.0000m    6.3640m  693.6361m 
 -490.37475m   35.2926n  700.0000m    6.5054m  693.4947m 
 -490.27475m   35.4626n  700.0000m    6.6468m  693.3532m 
 -490.17475m   35.6335n  700.0000m    6.7882m  693.2118m 
 -490.07475m   35.8055n  700.0000m    6.9296m  693.0704m 
 -489.97475m   35.9784n  700.0000m    7.0711m  692.9290m 
 -489.87475m   36.1524n  700.0000m    7.2125m  692.7875m 
 -489.77475m   36.3273n  700.0000m    7.3539m  692.6461m 
 -489.67475m   36.5033n  700.0000m    7.4953m  692.5047m 
 -489.57475m   36.6803n  700.0000m    7.6367m  692.3633m 
 -489.47475m   36.8583n  700.0000m    7.7782m  692.2219m 
 -489.37475m   37.0373n  700.0000m    7.9196m  692.0804m 
 -489.27475m   37.2174n  700.0000m    8.0610m  691.9390m 
 -489.17475m   37.3986n  700.0000m    8.2024m  691.7976m 
 -489.07475m   37.5808n  700.0000m    8.3439m  691.6562m 
 -488.97475m   37.7640n  700.0000m    8.4853m  691.5148m 
 -488.87475m   37.9483n  700.0000m    8.6267m  691.3733m 
 -488.77475m   38.1337n  700.0000m    8.7681m  691.2319m 
 -488.67475m   38.3201n  700.0000m    8.9095m  691.0905m 
 -488.57475m   38.5077n  700.0000m    9.0510m  690.9491m 
 -488.47475m   38.6963n  700.0000m    9.1924m  690.8077m 
 -488.37475m   38.8860n  700.0000m    9.3338m  690.6662m 
 -488.27475m   39.0768n  700.0000m    9.4752m  690.5248m 
 -488.17475m   39.2688n  700.0000m    9.6166m  690.3834m 
 -488.07475m   39.4618n  700.0000m    9.7581m  690.2420m 
 -487.97475m   39.6560n  700.0000m    9.8995m  690.1005m 
 -487.87475m   39.8512n  700.0000m   10.0409m  689.9591m 
 -487.77475m   40.0477n  700.0000m   10.1823m  689.8177m 
 -487.67475m   40.2452n  700.0000m   10.3237m  689.6763m 
 -487.57475m   40.4439n  700.0000m   10.4652m  689.5349m 
 -487.47475m   40.6438n  700.0000m   10.6066m  689.3934m 
 -487.37475m   40.8448n  700.0000m   10.7480m  689.2520m 
 -487.27475m   41.0470n  700.0000m   10.8894m  689.1106m 
 -487.17475m   41.2504n  700.0000m   11.0309m  688.9692m 
 -487.07475m   41.4549n  700.0000m   11.1723m  688.8278m 
 -486.97475m   41.6606n  700.0000m   11.3137m  688.6863m 
 -486.87475m   41.8676n  700.0000m   11.4551m  688.5449m 
 -486.77475m   42.0757n  700.0000m   11.5965m  688.4035m 
 -486.67475m   42.2850n  700.0000m   11.7380m  688.2621m 
 -486.57475m   42.4956n  700.0000m   11.8794m  688.1206m 
 -486.47475m   42.7073n  700.0000m   12.0208m  687.9792m 
 -486.37475m   42.9203n  700.0000m   12.1622m  687.8378m 
 -486.27475m   43.1346n  700.0000m   12.3036m  687.6964m 
 -486.17475m   43.3500n  700.0000m   12.4451m  687.5550m 
 -486.07475m   43.5668n  700.0000m   12.5865m  687.4135m 
 -485.97475m   43.7848n  700.0000m   12.7279m  687.2721m 
 -485.87475m   44.0040n  700.0000m   12.8693m  687.1307m 
 -485.77475m   44.2245n  700.0000m   13.0108m  686.9893m 
 -485.67475m   44.4463n  700.0000m   13.1522m  686.8479m 
 -485.57475m   44.6694n  700.0000m   13.2936m  686.7064m 
 -485.47475m   44.8938n  700.0000m   13.4350m  686.5650m 
 -485.37475m   45.1195n  700.0000m   13.5764m  686.4236m 
 -485.27475m   45.3465n  700.0000m   13.7179m  686.2822m 
 -485.17475m   45.5748n  700.0000m   13.8593m  686.1408m 
 -485.07475m   45.8045n  700.0000m   14.0007m  685.9993m 
 -484.97475m   46.0355n  700.0000m   14.1421m  685.8579m 
 -484.87475m   46.2678n  700.0000m   14.2835m  685.7165m 
 -484.77475m   46.5015n  700.0000m   14.4250m  685.5751m 
 -484.67475m   46.7365n  700.0000m   14.5664m  685.4336m 
 -484.57475m   46.9729n  700.0000m   14.7078m  685.2922m 
 -484.47475m   47.2106n  700.0000m   14.8492m  685.1508m 
 -484.37475m   47.4498n  700.0000m   14.9907m  685.0094m 
 -484.27475m   47.6903n  700.0000m   15.1321m  684.8680m 
 -484.17475m   47.9322n  700.0000m   15.2735m  684.7265m 
 -484.07475m   48.1756n  700.0000m   15.4149m  684.5851m 
 -483.97475m   48.4203n  700.0000m   15.5563m  684.4437m 
 -483.87475m   48.6665n  700.0000m   15.6978m  684.3023m 
 -483.77475m   48.9141n  700.0000m   15.8392m  684.1609m 
 -483.67475m   49.1631n  700.0000m   15.9806m  684.0194m 
 -483.57475m   49.4136n  700.0000m   16.1220m  683.8780m 
 -483.47475m   49.6655n  700.0000m   16.2634m  683.7366m 
 -483.37475m   49.9189n  700.0000m   16.4049m  683.5952m 
 -483.27475m   50.1738n  700.0000m   16.5463m  683.4538m 
 -483.17475m   50.4301n  700.0000m   16.6877m  683.3123m 
 -483.07475m   50.6880n  700.0000m   16.8291m  683.1709m 
 -482.97475m   50.9473n  700.0000m   16.9706m  683.0295m 
 -482.87475m   51.2082n  700.0000m   17.1120m  682.8881m 
 -482.77475m   51.4705n  700.0000m   17.2534m  682.7466m 
 -482.67475m   51.7344n  700.0000m   17.3948m  682.6052m 
 -482.57475m   51.9998n  700.0000m   17.5362m  682.4638m 
 -482.47475m   52.2668n  700.0000m   17.6777m  682.3224m 
 -482.37475m   52.5353n  700.0000m   17.8191m  682.1810m 
 -482.27475m   52.8053n  700.0000m   17.9605m  682.0395m 
 -482.17475m   53.0770n  700.0000m   18.1019m  681.8981m 
 -482.07475m   53.3502n  700.0000m   18.2433m  681.7567m 
 -481.97475m   53.6250n  700.0000m   18.3848m  681.6153m 
 -481.87475m   53.9014n  700.0000m   18.5262m  681.4739m 
 -481.77475m   54.1793n  700.0000m   18.6676m  681.3324m 
 -481.67475m   54.4590n  700.0000m   18.8090m  681.1910m 
 -481.57475m   54.7402n  700.0000m   18.9504m  681.0496m 
 -481.47475m   55.0231n  700.0000m   19.0919m  680.9082m 
 -481.37475m   55.3076n  700.0000m   19.2333m  680.7668m 
 -481.27475m   55.5938n  700.0000m   19.3747m  680.6253m 
 -481.17475m   55.8816n  700.0000m   19.5161m  680.4839m 
 -481.07475m   56.1711n  700.0000m   19.6576m  680.3425m 
 -480.97475m   56.4623n  700.0000m   19.7990m  680.2011m 
 -480.87475m   56.7551n  700.0000m   19.9404m  680.0596m 
 -480.77475m   57.0497n  700.0000m   20.0818m  679.9182m 
 -480.67475m   57.3460n  700.0000m   20.2232m  679.7768m 
 -480.57475m   57.6440n  700.0000m   20.3647m  679.6354m 
 -480.47475m   57.9438n  700.0000m   20.5061m  679.4940m 
 -480.37475m   58.2452n  700.0000m   20.6475m  679.3525m 
 -480.27475m   58.5485n  700.0000m   20.7889m  679.2111m 
 -480.17475m   58.8535n  700.0000m   20.9303m  679.0697m 
 -480.07475m   59.1603n  700.0000m   21.0718m  678.9283m 
 -479.97475m   59.4688n  700.0000m   21.2132m  678.7869m 
 -479.87475m   59.7792n  700.0000m   21.3546m  678.6454m 
 -479.77475m   60.0913n  700.0000m   21.4960m  678.5040m 
 -479.67475m   60.4053n  700.0000m   21.6375m  678.3626m 
 -479.57475m   60.7211n  700.0000m   21.7789m  678.2212m 
 -479.47475m   61.0387n  700.0000m   21.9203m  678.0798m 
 -479.37475m   61.3581n  700.0000m   22.0617m  677.9383m 
 -479.27475m   61.6795n  700.0000m   22.2031m  677.7969m 
 -479.17475m   62.0027n  700.0000m   22.3446m  677.6555m 
 -479.07475m   62.3277n  700.0000m   22.4860m  677.5141m 
 -478.97475m   62.6547n  700.0000m   22.6274m  677.3726m 
 -478.87475m   62.9836n  700.0000m   22.7688m  677.2312m 
 -478.77475m   63.3143n  700.0000m   22.9102m  677.0898m 
 -478.67475m   63.6470n  700.0000m   23.0517m  676.9484m 
 -478.57475m   63.9817n  700.0000m   23.1931m  676.8070m 
 -478.47475m   64.3182n  700.0000m   23.3345m  676.6655m 
 -478.37475m   64.6568n  700.0000m   23.4759m  676.5241m 
 -478.27475m   64.9973n  700.0000m   23.6174m  676.3827m 
 -478.17475m   65.3398n  700.0000m   23.7588m  676.2413m 
 -478.07475m   65.6842n  700.0000m   23.9002m  676.0999m 
 -477.97475m   66.0307n  700.0000m   24.0416m  675.9584m 
 -477.87475m   66.3792n  700.0000m   24.1830m  675.8170m 
 -477.77475m   66.7297n  700.0000m   24.3245m  675.6756m 
 -477.67475m   67.0823n  700.0000m   24.4659m  675.5342m 
 -477.57475m   67.4369n  700.0000m   24.6073m  675.3928m 
 -477.47475m   67.7935n  700.0000m   24.7487m  675.2513m 
 -477.37475m   68.1523n  700.0000m   24.8901m  675.1099m 
 -477.27475m   68.5131n  700.0000m   25.0316m  674.9685m 
 -477.17475m   68.8760n  700.0000m   25.1730m  674.8271m 
 -477.07475m   69.2411n  700.0000m   25.3144m  674.6856m 
 -476.97475m   69.6082n  700.0000m   25.4558m  674.5442m 
 -476.87475m   69.9775n  700.0000m   25.5972m  674.4028m 
 -476.77475m   70.3489n  700.0000m   25.7387m  674.2614m 
 -476.67475m   70.7225n  700.0000m   25.8801m  674.1200m 
 -476.57475m   71.0983n  700.0000m   26.0215m  673.9785m 
 -476.47475m   71.4763n  700.0000m   26.1629m  673.8371m 
 -476.37475m   71.8564n  700.0000m   26.3044m  673.6957m 
 -476.27475m   72.2388n  700.0000m   26.4458m  673.5543m 
 -476.17475m   72.6234n  700.0000m   26.5872m  673.4129m 
 -476.07475m   73.0102n  700.0000m   26.7286m  673.2714m 
 -475.97475m   73.3993n  700.0000m   26.8700m  673.1300m 
 -475.87475m   73.7907n  700.0000m   27.0115m  672.9886m 
 -475.77475m   74.1843n  700.0000m   27.1529m  672.8472m 
 -475.67475m   74.5802n  700.0000m   27.2943m  672.7058m 
 -475.57475m   74.9784n  700.0000m   27.4357m  672.5643m 
 -475.47475m   75.3789n  700.0000m   27.5771m  672.4229m 
 -475.37475m   75.7818n  700.0000m   27.7186m  672.2815m 
 -475.27475m   76.1870n  700.0000m   27.8600m  672.1401m 
 -475.17475m   76.5946n  700.0000m   28.0014m  671.9986m 
 -475.07475m   77.0045n  700.0000m   28.1428m  671.8572m 
 -474.97475m   77.4168n  700.0000m   28.2843m  671.7158m 
 -474.87475m   77.8316n  700.0000m   28.4257m  671.5744m 
 -474.77475m   78.2487n  700.0000m   28.5671m  671.4330m 
 -474.67475m   78.6683n  700.0000m   28.7085m  671.2915m 
 -474.57475m   79.0903n  700.0000m   28.8499m  671.1501m 
 -474.47475m   79.5147n  700.0000m   28.9914m  671.0087m 
 -474.37475m   79.9417n  700.0000m   29.1328m  670.8673m 
 -474.27475m   80.3711n  700.0000m   29.2742m  670.7259m 
 -474.17475m   80.8030n  700.0000m   29.4156m  670.5844m 
 -474.07475m   81.2374n  700.0000m   29.5570m  670.4430m 
 -473.97475m   81.6744n  700.0000m   29.6985m  670.3016m 
 -473.87475m   82.1139n  700.0000m   29.8399m  670.1602m 
 -473.77475m   82.5560n  700.0000m   29.9813m  670.0188m 
 -473.67475m   83.0006n  700.0000m   30.1227m  669.8773m 
 -473.57475m   83.4478n  700.0000m   30.2642m  669.7359m 
 -473.47475m   83.8977n  700.0000m   30.4056m  669.5945m 
 -473.37475m   84.3501n  700.0000m   30.5470m  669.4531m 
 -473.27475m   84.8052n  700.0000m   30.6884m  669.3117m 
 -473.17475m   85.2629n  700.0000m   30.8298m  669.1702m 
 -473.07475m   85.7233n  700.0000m   30.9713m  669.0288m 
 -472.97475m   86.1864n  700.0000m   31.1127m  668.8874m 
 -472.87475m   86.6522n  700.0000m   31.2541m  668.7460m 
 -472.77475m   87.1207n  700.0000m   31.3955m  668.6045m 
 -472.67475m   87.5919n  700.0000m   31.5369m  668.4631m 
 -472.57475m   88.0659n  700.0000m   31.6784m  668.3217m 
 -472.47475m   88.5426n  700.0000m   31.8198m  668.1803m 
 -472.37475m   89.0221n  700.0000m   31.9612m  668.0389m 
 -472.27475m   89.5044n  700.0000m   32.1026m  667.8974m 
 -472.17475m   89.9895n  700.0000m   32.2440m  667.7560m 
 -472.07475m   90.4774n  700.0000m   32.3855m  667.6146m 
 -471.97475m   90.9682n  700.0000m   32.5269m  667.4732m 
 -471.87475m   91.4618n  700.0000m   32.6683m  667.3318m 
 -471.77475m   91.9583n  700.0000m   32.8097m  667.1903m 
 -471.67475m   92.4577n  700.0000m   32.9512m  667.0489m 
 -471.57475m   92.9600n  700.0000m   33.0926m  666.9075m 
 -471.47475m   93.4652n  700.0000m   33.2340m  666.7661m 
 -471.37475m   93.9734n  700.0000m   33.3754m  666.6247m 
 -471.27475m   94.4846n  700.0000m   33.5168m  666.4832m 
 -471.17475m   94.9987n  700.0000m   33.6583m  666.3418m 
 -471.07475m   95.5158n  700.0000m   33.7997m  666.2004m 
 -470.97475m   96.0359n  700.0000m   33.9411m  666.0590m 
 -470.87475m   96.5591n  700.0000m   34.0825m  665.9175m 
 -470.77475m   97.0853n  700.0000m   34.2239m  665.7761m 
 -470.67475m   97.6146n  700.0000m   34.3654m  665.6347m 
 -470.57475m   98.1469n  700.0000m   34.5068m  665.4933m 
 -470.47475m   98.6824n  700.0000m   34.6482m  665.3519m 
 -470.37475m   99.2210n  700.0000m   34.7896m  665.2104m 
 -470.27475m   99.7627n  700.0000m   34.9311m  665.0690m 
 -470.17475m  100.3076n  700.0000m   35.0725m  664.9276m 
 -470.07475m  100.8556n  700.0000m   35.2139m  664.7862m 
 -469.97475m  101.4069n  700.0000m   35.3553m  664.6448m 
 -469.87475m  101.9614n  700.0000m   35.4967m  664.5033m 
 -469.77475m  102.5191n  700.0000m   35.6382m  664.3619m 
 -469.67475m  103.0800n  700.0000m   35.7796m  664.2205m 
 -469.57475m  103.6442n  700.0000m   35.9210m  664.0791m 
 -469.47475m  104.2118n  700.0000m   36.0624m  663.9377m 
 -469.37475m  104.7826n  700.0000m   36.2038m  663.7962m 
 -469.27475m  105.3567n  700.0000m   36.3453m  663.6548m 
 -469.17475m  105.9342n  700.0000m   36.4867m  663.5134m 
 -469.07475m  106.5151n  700.0000m   36.6281m  663.3720m 
 -468.97475m  107.0993n  700.0000m   36.7695m  663.2306m 
 -468.87475m  107.6870n  700.0000m   36.9110m  663.0891m 
 -468.77475m  108.2781n  700.0000m   37.0524m  662.9477m 
 -468.67475m  108.8726n  700.0000m   37.1938m  662.8063m 
 -468.57475m  109.4706n  700.0000m   37.3352m  662.6649m 
 -468.47475m  110.0721n  700.0000m   37.4766m  662.5235m 
 -468.37475m  110.6771n  700.0000m   37.6181m  662.3820m 
 -468.27475m  111.2857n  700.0000m   37.7595m  662.2406m 
 -468.17475m  111.8978n  700.0000m   37.9009m  662.0992m 
 -468.07475m  112.5134n  700.0000m   38.0423m  661.9578m 
 -467.97475m  113.1327n  700.0000m   38.1837m  661.8163m 
 -467.87475m  113.7555n  700.0000m   38.3252m  661.6749m 
 -467.77475m  114.3820n  700.0000m   38.4666m  661.5335m 
 -467.67475m  115.0122n  700.0000m   38.6080m  661.3921m 
 -467.57475m  115.6460n  700.0000m   38.7494m  661.2507m 
 -467.47475m  116.2835n  700.0000m   38.8908m  661.1092m 
 -467.37475m  116.9248n  700.0000m   39.0323m  660.9678m 
 -467.27475m  117.5698n  700.0000m   39.1737m  660.8264m 
 -467.17475m  118.2185n  700.0000m   39.3151m  660.6850m 
 -467.07475m  118.8711n  700.0000m   39.4565m  660.5436m 
 -466.97475m  119.5274n  700.0000m   39.5980m  660.4021m 
 -466.87475m  120.1876n  700.0000m   39.7394m  660.2607m 
 -466.77475m  120.8517n  700.0000m   39.8808m  660.1193m 
 -466.67475m  121.5196n  700.0000m   40.0222m  659.9779m 
 -466.57475m  122.1914n  700.0000m   40.1636m  659.8365m 
 -466.47475m  122.8671n  700.0000m   40.3051m  659.6950m 
 -466.37475m  123.5468n  700.0000m   40.4465m  659.5536m 
 -466.27475m  124.2304n  700.0000m   40.5879m  659.4122m 
 -466.17475m  124.9181n  700.0000m   40.7293m  659.2708m 
 -466.07475m  125.6097n  700.0000m   40.8707m  659.1294m 
 -465.97475m  126.3054n  700.0000m   41.0122m  658.9879m 
 -465.87475m  127.0052n  700.0000m   41.1536m  658.8465m 
 -465.77475m  127.7090n  700.0000m   41.2950m  658.7051m 
 -465.67475m  128.4170n  700.0000m   41.4364m  658.5637m 
 -465.57475m  129.1291n  700.0000m   41.5779m  658.4223m 
 -465.47475m  129.8453n  700.0000m   41.7193m  658.2808m 
 -465.37475m  130.5658n  700.0000m   41.8607m  658.1394m 
 -465.27475m  131.2904n  700.0000m   42.0021m  657.9980m 
 -465.17475m  132.0193n  700.0000m   42.1435m  657.8566m 
 -465.07475m  132.7524n  700.0000m   42.2850m  657.7151m 
 -464.97475m  133.4899n  700.0000m   42.4264m  657.5737m 
 -464.87475m  134.2316n  700.0000m   42.5678m  657.4323m 
 -464.77475m  134.9776n  700.0000m   42.7092m  657.2909m 
 -464.67475m  135.7281n  700.0000m   42.8506m  657.1495m 
 -464.57475m  136.4829n  700.0000m   42.9921m  657.0080m 
 -464.47475m  137.2421n  700.0000m   43.1335m  656.8666m 
 -464.37475m  138.0057n  700.0000m   43.2749m  656.7252m 
 -464.27475m  138.7739n  700.0000m   43.4163m  656.5838m 
 -464.17475m  139.5465n  700.0000m   43.5577m  656.4424m 
 -464.07475m  140.3236n  700.0000m   43.6992m  656.3009m 
 -463.97475m  141.1052n  700.0000m   43.8406m  656.1595m 
 -463.87475m  141.8915n  700.0000m   43.9820m  656.0181m 
 -463.77475m  142.6823n  700.0000m   44.1234m  655.8767m 
 -463.67475m  143.4778n  700.0000m   44.2649m  655.7353m 
 -463.57475m  144.2779n  700.0000m   44.4063m  655.5938m 
 -463.47475m  145.0826n  700.0000m   44.5477m  655.4524m 
 -463.37475m  145.8921n  700.0000m   44.6891m  655.3110m 
 -463.27475m  146.7063n  700.0000m   44.8305m  655.1696m 
 -463.17475m  147.5253n  700.0000m   44.9720m  655.0282m 
 -463.07475m  148.3491n  700.0000m   45.1134m  654.8867m 
 -462.97475m  149.1777n  700.0000m   45.2548m  654.7453m 
 -462.87475m  150.0111n  700.0000m   45.3962m  654.6039m 
 -462.77475m  150.8494n  700.0000m   45.5376m  654.4625m 
 -462.67475m  151.6926n  700.0000m   45.6791m  654.3211m 
 -462.57475m  152.5408n  700.0000m   45.8205m  654.1796m 
 -462.47475m  153.3939n  700.0000m   45.9619m  654.0382m 
 -462.37475m  154.2520n  700.0000m   46.1033m  653.8968m 
 -462.27475m  155.1151n  700.0000m   46.2448m  653.7554m 
 -462.17475m  155.9832n  700.0000m   46.3862m  653.6140m 
 -462.07475m  156.8565n  700.0000m   46.5276m  653.4725m 
 -461.97475m  157.7348n  700.0000m   46.6690m  653.3311m 
 -461.87475m  158.6183n  700.0000m   46.8104m  653.1897m 
 -461.77475m  159.5070n  700.0000m   46.9519m  653.0483m 
 -461.67475m  160.4008n  700.0000m   47.0933m  652.9068m 
 -461.57475m  161.2999n  700.0000m   47.2347m  652.7654m 
 -461.47475m  162.2042n  700.0000m   47.3761m  652.6240m 
 -461.37475m  163.1139n  700.0000m   47.5175m  652.4826m 
 -461.27475m  164.0288n  700.0000m   47.6590m  652.3412m 
 -461.17475m  164.9492n  700.0000m   47.8004m  652.1997m 
 -461.07475m  165.8749n  700.0000m   47.9418m  652.0583m 
 -460.97475m  166.8060n  700.0000m   48.0832m  651.9169m 
 -460.87475m  167.7426n  700.0000m   48.2246m  651.7755m 
 -460.77475m  168.6846n  700.0000m   48.3661m  651.6341m 
 -460.67475m  169.6322n  700.0000m   48.5075m  651.4926m 
 -460.57475m  170.5853n  700.0000m   48.6489m  651.3512m 
 -460.47475m  171.5440n  700.0000m   48.7903m  651.2098m 
 -460.37475m  172.5083n  700.0000m   48.9318m  651.0684m 
 -460.27475m  173.4783n  700.0000m   49.0732m  650.9270m 
 -460.17475m  174.4539n  700.0000m   49.2146m  650.7855m 
 -460.07475m  175.4353n  700.0000m   49.3560m  650.6441m 
 -459.97475m  176.4224n  700.0000m   49.4974m  650.5027m 
 -459.87475m  177.4153n  700.0000m   49.6389m  650.3613m 
 -459.77475m  178.4140n  700.0000m   49.7803m  650.2199m 
 -459.67475m  179.4185n  700.0000m   49.9217m  650.0784m 
 -459.57475m  180.4290n  700.0000m   50.0631m  649.9370m 
 -459.47475m  181.4453n  700.0000m   50.2045m  649.7956m 
 -459.37475m  182.4676n  700.0000m   50.3460m  649.6542m 
 -459.27475m  183.4959n  700.0000m   50.4874m  649.5128m 
 -459.17475m  184.5302n  700.0000m   50.6288m  649.3713m 
 -459.07475m  185.5706n  700.0000m   50.7702m  649.2299m 
 -458.97475m  186.6171n  700.0000m   50.9117m  649.0885m 
 -458.87475m  187.6697n  700.0000m   51.0531m  648.9471m 
 -458.77475m  188.7285n  700.0000m   51.1945m  648.8057m 
 -458.67475m  189.7934n  700.0000m   51.3359m  648.6642m 
 -458.57475m  190.8647n  700.0000m   51.4773m  648.5228m 
 -458.47475m  191.9421n  700.0000m   51.6188m  648.3814m 
 -458.37475m  193.0260n  700.0000m   51.7602m  648.2400m 
 -458.27475m  194.1161n  700.0000m   51.9016m  648.0986m 
 -458.17475m  195.2127n  700.0000m   52.0430m  647.9571m 
 -458.07475m  196.3157n  700.0000m   52.1844m  647.8157m 
 -457.97475m  197.4251n  700.0000m   52.3259m  647.6743m 
 -457.87475m  198.5411n  700.0000m   52.4673m  647.5329m 
 -457.77475m  199.6636n  700.0000m   52.6087m  647.3915m 
 -457.67475m  200.7926n  700.0000m   52.7501m  647.2500m 
 -457.57475m  201.9283n  700.0000m   52.8915m  647.1086m 
 -457.47475m  203.0707n  700.0000m   53.0330m  646.9672m 
 -457.37475m  204.2198n  700.0000m   53.1744m  646.8258m 
 -457.27475m  205.3756n  700.0000m   53.3158m  646.6844m 
 -457.17475m  206.5381n  700.0000m   53.4572m  646.5429m 
 -457.07475m  207.7075n  700.0000m   53.5987m  646.4015m 
 -456.97475m  208.8838n  700.0000m   53.7401m  646.2601m 
 -456.87475m  210.0669n  700.0000m   53.8815m  646.1187m 
 -456.77475m  211.2570n  700.0000m   54.0229m  645.9773m 
 -456.67475m  212.4541n  700.0000m   54.1643m  645.8358m 
 -456.57475m  213.6582n  700.0000m   54.3058m  645.6944m 
 -456.47475m  214.8694n  700.0000m   54.4472m  645.5530m 
 -456.37475m  216.0876n  700.0000m   54.5886m  645.4116m 
 -456.27475m  217.3130n  700.0000m   54.7300m  645.2702m 
 -456.17475m  218.5456n  700.0000m   54.8714m  645.1287m 
 -456.07475m  219.7855n  700.0000m   55.0129m  644.9873m 
 -455.97475m  221.0326n  700.0000m   55.1543m  644.8459m 
 -455.87475m  222.2870n  700.0000m   55.2957m  644.7045m 
 -455.77475m  223.5488n  700.0000m   55.4371m  644.5631m 
 -455.67475m  224.8180n  700.0000m   55.5785m  644.4216m 
 -455.57475m  226.0947n  700.0000m   55.7200m  644.2802m 
 -455.47475m  227.3788n  700.0000m   55.8614m  644.1388m 
 -455.37475m  228.6705n  700.0000m   56.0028m  643.9974m 
 -455.27475m  229.9698n  700.0000m   56.1442m  643.8560m 
 -455.17475m  231.2767n  700.0000m   56.2857m  643.7145m 
 -455.07475m  232.5912n  700.0000m   56.4271m  643.5731m 
 -454.97475m  233.9135n  700.0000m   56.5685m  643.4317m 
 -454.87475m  235.2436n  700.0000m   56.7099m  643.2903m 
 -454.77475m  236.5814n  700.0000m   56.8513m  643.1489m 
 -454.67475m  237.9272n  700.0000m   56.9928m  643.0074m 
 -454.57475m  239.2808n  700.0000m   57.1342m  642.8660m 
 -454.47475m  240.6423n  700.0000m   57.2756m  642.7246m 
 -454.37475m  242.0119n  700.0000m   57.4170m  642.5832m 
 -454.27475m  243.3895n  700.0000m   57.5584m  642.4418m 
 -454.17475m  244.7752n  700.0000m   57.6999m  642.3003m 
 -454.07475m  246.1691n  700.0000m   57.8413m  642.1589m 
 -453.97475m  247.5711n  700.0000m   57.9827m  642.0175m 
 -453.87475m  248.9814n  700.0000m   58.1241m  641.8761m 
 -453.77475m  250.4000n  700.0000m   58.2655m  641.7347m 
 -453.67475m  251.8268n  699.9999m   58.4070m  641.5932m 
 -453.57475m  253.2621n  699.9999m   58.5484m  641.4518m 
 -453.47475m  254.7058n  699.9999m   58.6898m  641.3104m 
 -453.37475m  256.1580n  699.9999m   58.8312m  641.1690m 
 -453.27475m  257.6188n  699.9999m   58.9727m  641.0276m 
 -453.17475m  259.0881n  699.9999m   59.1141m  640.8861m 
 -453.07475m  260.5660n  699.9999m   59.2555m  640.7447m 
 -452.97475m  262.0527n  699.9999m   59.3969m  640.6033m 
 -452.87475m  263.5481n  699.9999m   59.5383m  640.4619m 
 -452.77475m  265.0522n  699.9999m   59.6798m  640.3205m 
 -452.67475m  266.5653n  699.9999m   59.8212m  640.1790m 
 -452.57475m  268.0872n  699.9999m   59.9626m  640.0376m 
 -452.47475m  269.6180n  699.9999m   60.1040m  639.8962m 
 -452.37475m  271.1579n  699.9999m   60.2454m  639.7548m 
 -452.27475m  272.7068n  699.9999m   60.3869m  639.6134m 
 -452.17475m  274.2648n  699.9999m   60.5283m  639.4719m 
 -452.07475m  275.8320n  699.9999m   60.6697m  639.3305m 
 -451.97475m  277.4084n  699.9999m   60.8111m  639.1891m 
 -451.87475m  278.9941n  699.9999m   60.9525m  639.0477m 
 -451.77475m  280.5891n  699.9999m   61.0940m  638.9063m 
 -451.67475m  282.1935n  699.9999m   61.2354m  638.7648m 
 -451.57475m  283.8073n  699.9999m   61.3768m  638.6234m 
 -451.47475m  285.4306n  699.9999m   61.5182m  638.4820m 
 -451.37475m  287.0635n  699.9999m   61.6597m  638.3406m 
 -451.27475m  288.7060n  699.9999m   61.8011m  638.1992m 
 -451.17475m  290.3581n  699.9999m   61.9425m  638.0577m 
 -451.07475m  292.0200n  699.9999m   62.0839m  637.9163m 
 -450.97475m  293.6916n  699.9999m   62.2253m  637.7749m 
 -450.87475m  295.3731n  699.9999m   62.3668m  637.6335m 
 -450.77475m  297.0645n  699.9999m   62.5082m  637.4921m 
 -450.67475m  298.7658n  699.9999m   62.6496m  637.3506m 
 -450.57475m  300.4772n  699.9999m   62.7910m  637.2092m 
 -450.47475m  302.1986n  699.9999m   62.9324m  637.0678m 
 -450.37475m  303.9301n  699.9999m   63.0739m  636.9264m 
 -450.27475m  305.6719n  699.9999m   63.2153m  636.7850m 
 -450.17475m  307.4239n  699.9999m   63.3567m  636.6435m 
 -450.07475m  309.1862n  699.9999m   63.4981m  636.5021m 
 -449.97475m  310.9589n  699.9999m   63.6395m  636.3607m 
 -449.87475m  312.7421n  699.9999m   63.7810m  636.2193m 
 -449.77475m  314.5357n  699.9999m   63.9224m  636.0779m 
 -449.67475m  316.3399n  699.9999m   64.0638m  635.9364m 
 -449.57475m  318.1547n  699.9999m   64.2052m  635.7950m 
 -449.47475m  319.9802n  699.9999m   64.3467m  635.6536m 
 -449.37475m  321.8165n  699.9999m   64.4881m  635.5122m 
 -449.27475m  323.6636n  699.9999m   64.6295m  635.3708m 
 -449.17475m  325.5215n  699.9999m   64.7709m  635.2293m 
 -449.07475m  327.3905n  699.9999m   64.9123m  635.0879m 
 -448.97475m  329.2704n  699.9999m   65.0538m  634.9465m 
 -448.87475m  331.1614n  699.9999m   65.1952m  634.8051m 
 -448.77475m  333.0635n  699.9999m   65.3366m  634.6637m 
 -448.67475m  334.9769n  699.9999m   65.4780m  634.5222m 
 -448.57475m  336.9015n  699.9999m   65.6194m  634.3808m 
 -448.47475m  338.8375n  699.9999m   65.7609m  634.2394m 
 -448.37475m  340.7848n  699.9999m   65.9023m  634.0980m 
 -448.27475m  342.7437n  699.9999m   66.0437m  633.9566m 
 -448.17475m  344.7141n  699.9999m   66.1851m  633.8151m 
 -448.07475m  346.6961n  699.9999m   66.3265m  633.6737m 
 -447.97475m  348.6898n  699.9999m   66.4680m  633.5323m 
 -447.87475m  350.6953n  699.9999m   66.6094m  633.3909m 
 -447.77475m  352.7125n  699.9999m   66.7508m  633.2495m 
 -447.67475m  354.7417n  699.9999m   66.8922m  633.1081m 
 -447.57475m  356.7829n  699.9999m   67.0337m  632.9666m 
 -447.47475m  358.8360n  699.9999m   67.1751m  632.8252m 
 -447.37475m  360.9013n  699.9999m   67.3165m  632.6838m 
 -447.27475m  362.9788n  699.9999m   67.4579m  632.5424m 
 -447.17475m  365.0685n  699.9999m   67.5993m  632.4010m 
 -447.07475m  367.1705n  699.9999m   67.7408m  632.2595m 
 -446.97475m  369.2850n  699.9999m   67.8822m  632.1181m 
 -446.87475m  371.4119n  699.9999m   68.0236m  631.9767m 
 -446.77475m  373.5514n  699.9999m   68.1650m  631.8353m 
 -446.67475m  375.7035n  699.9999m   68.3064m  631.6939m 
 -446.57475m  377.8682n  699.9999m   68.4479m  631.5524m 
 -446.47475m  380.0458n  699.9999m   68.5893m  631.4110m 
 -446.37475m  382.2362n  699.9999m   68.7307m  631.2696m 
 -446.27475m  384.4395n  699.9999m   68.8721m  631.1282m 
 -446.17475m  386.6559n  699.9999m   69.0135m  630.9868m 
 -446.07475m  388.8853n  699.9999m   69.1550m  630.8453m 
 -445.97475m  391.1279n  699.9999m   69.2964m  630.7039m 
 -445.87475m  393.3837n  699.9999m   69.4378m  630.5625m 
 -445.77475m  395.6528n  699.9999m   69.5792m  630.4211m 
 -445.67475m  397.9353n  699.9999m   69.7207m  630.2797m 
 -445.57475m  400.2313n  699.9999m   69.8621m  630.1383m 
 -445.47475m  402.5409n  699.9999m   70.0035m  629.9968m 
 -445.37475m  404.8641n  699.9999m   70.1449m  629.8554m 
 -445.27475m  407.2010n  699.9999m   70.2863m  629.7140m 
 -445.17475m  409.5517n  699.9999m   70.4278m  629.5726m 
 -445.07475m  411.9163n  699.9999m   70.5692m  629.4312m 
 -444.97475m  414.2949n  699.9999m   70.7106m  629.2897m 
 -444.87475m  416.6875n  699.9999m   70.8520m  629.1483m 
 -444.77475m  419.0942n  699.9999m   70.9934m  629.0069m 
 -444.67475m  421.5152n  699.9999m   71.1349m  628.8655m 
 -444.57475m  423.9504n  699.9999m   71.2763m  628.7241m 
 -444.47475m  426.4001n  699.9999m   71.4177m  628.5826m 
 -444.37475m  428.8642n  699.9999m   71.5591m  628.4412m 
 -444.27475m  431.3429n  699.9999m   71.7005m  628.2998m 
 -444.17475m  433.8362n  699.9999m   71.8420m  628.1584m 
 -444.07475m  436.3442n  699.9999m   71.9834m  628.0170m 
 -443.97475m  438.8671n  699.9999m   72.1248m  627.8755m 
 -443.87475m  441.4049n  699.9999m   72.2662m  627.7341m 
 -443.77475m  443.9577n  699.9999m   72.4076m  627.5927m 
 -443.67475m  446.5256n  699.9999m   72.5491m  627.4513m 
 -443.57475m  449.1086n  699.9999m   72.6905m  627.3099m 
 -443.47475m  451.7070n  699.9999m   72.8319m  627.1685m 
 -443.37475m  454.3206n  699.9999m   72.9733m  627.0270m 
 -443.27475m  456.9498n  699.9999m   73.1148m  626.8856m 
 -443.17475m  459.5945n  699.9999m   73.2562m  626.7442m 
 -443.07475m  462.2548n  699.9999m   73.3976m  626.6028m 
 -442.97475m  464.9308n  699.9999m   73.5390m  626.4614m 
 -442.87475m  467.6227n  699.9999m   73.6804m  626.3199m 
 -442.77475m  470.3305n  699.9999m   73.8219m  626.1785m 
 -442.67475m  473.0543n  699.9999m   73.9633m  626.0371m 
 -442.57475m  475.7943n  699.9999m   74.1047m  625.8957m 
 -442.47475m  478.5504n  699.9999m   74.2461m  625.7543m 
 -442.37475m  481.3229n  699.9999m   74.3875m  625.6128m 
 -442.27475m  484.1117n  699.9999m   74.5290m  625.4714m 
 -442.17475m  486.9170n  699.9999m   74.6704m  625.3300m 
 -442.07475m  489.7390n  699.9999m   74.8118m  625.1886m 
 -441.97475m  492.5776n  699.9999m   74.9532m  625.0472m 
 -441.87475m  495.4331n  699.9999m   75.0946m  624.9058m 
 -441.77475m  498.3054n  699.9999m   75.2361m  624.7643m 
 -441.67475m  501.1947n  699.9999m   75.3775m  624.6229m 
 -441.57475m  504.1012n  699.9999m   75.5189m  624.4815m 
 -441.47475m  507.0248n  699.9999m   75.6603m  624.3401m 
 -441.37475m  509.9657n  699.9999m   75.8017m  624.1987m 
 -441.27475m  512.9241n  699.9999m   75.9432m  624.0572m 
 -441.17475m  515.9000n  699.9999m   76.0846m  623.9158m 
 -441.07475m  518.8934n  699.9999m   76.2260m  623.7744m 
 -440.97475m  521.9047n  699.9999m   76.3674m  623.6330m 
 -440.87475m  524.9337n  699.9999m   76.5089m  623.4916m 
 -440.77475m  527.9807n  699.9999m   76.6503m  623.3502m 
 -440.67475m  531.0457n  699.9999m   76.7917m  623.2087m 
 -440.57475m  534.1289n  699.9999m   76.9331m  623.0673m 
 -440.47475m  537.2303n  699.9999m   77.0745m  622.9259m 
 -440.37475m  540.3501n  699.9999m   77.2160m  622.7845m 
 -440.27475m  543.4884n  699.9999m   77.3574m  622.6431m 
 -440.17475m  546.6453n  699.9999m   77.4988m  622.5016m 
 -440.07475m  549.8209n  699.9999m   77.6402m  622.3602m 
 -439.97475m  553.0153n  699.9999m   77.7816m  622.2188m 
 -439.87475m  556.2286n  699.9999m   77.9231m  622.0774m 
 -439.77475m  559.4610n  699.9999m   78.0645m  621.9360m 
 -439.67475m  562.7125n  699.9999m   78.2059m  621.7946m 
 -439.57475m  565.9833n  699.9999m   78.3473m  621.6531m 
 -439.47475m  569.2735n  699.9999m   78.4887m  621.5117m 
 -439.37475m  572.5832n  699.9999m   78.6302m  621.3703m 
 -439.27475m  575.9125n  699.9999m   78.7716m  621.2289m 
 -439.17475m  579.2615n  699.9999m   78.9130m  621.0875m 
 -439.07475m  582.6304n  699.9999m   79.0544m  620.9460m 
 -438.97475m  586.0193n  699.9999m   79.1958m  620.8046m 
 -438.87475m  589.4282n  699.9999m   79.3373m  620.6632m 
 -438.77475m  592.8574n  699.9999m   79.4787m  620.5218m 
 -438.67475m  596.3069n  699.9999m   79.6201m  620.3804m 
 -438.57475m  599.7769n  699.9999m   79.7615m  620.2390m 
 -438.47475m  603.2674n  699.9999m   79.9030m  620.0975m 
 -438.37475m  606.7786n  699.9999m   80.0444m  619.9561m 
 -438.27475m  610.3107n  699.9999m   80.1858m  619.8147m 
 -438.17475m  613.8637n  699.9999m   80.3272m  619.6733m 
 -438.07475m  617.4378n  699.9999m   80.4686m  619.5319m 
 -437.97475m  621.0332n  699.9999m   80.6101m  619.3904m 
 -437.87475m  624.6498n  699.9999m   80.7515m  619.2490m 
 -437.77475m  628.2879n  699.9999m   80.8929m  619.1076m 
 -437.67475m  631.9476n  699.9999m   81.0343m  618.9662m 
 -437.57475m  635.6290n  699.9999m   81.1757m  618.8248m 
 -437.47475m  639.3322n  699.9999m   81.3172m  618.6834m 
 -437.37475m  643.0575n  699.9999m   81.4586m  618.5419m 
 -437.27475m  646.8048n  699.9999m   81.6000m  618.4005m 
 -437.17475m  650.5744n  699.9999m   81.7414m  618.2591m 
 -437.07475m  654.3664n  699.9999m   81.8828m  618.1177m 
 -436.97475m  658.1808n  699.9999m   82.0243m  617.9763m 
 -436.87475m  662.0180n  699.9999m   82.1657m  617.8349m 
 -436.77475m  665.8779n  699.9999m   82.3071m  617.6934m 
 -436.67475m  669.7607n  699.9999m   82.4485m  617.5520m 
 -436.57475m  673.6666n  699.9999m   82.5899m  617.4106m 
 -436.47475m  677.5957n  699.9999m   82.7314m  617.2692m 
 -436.37475m  681.5481n  699.9999m   82.8728m  617.1278m 
 -436.27475m  685.5240n  699.9999m   83.0142m  616.9863m 
 -436.17475m  689.5235n  699.9999m   83.1556m  616.8449m 
 -436.07475m  693.5468n  699.9999m   83.2970m  616.7035m 
 -435.97475m  697.5939n  699.9999m   83.4385m  616.5621m 
 -435.87475m  701.6651n  699.9999m   83.5799m  616.4207m 
 -435.77475m  705.7605n  699.9999m   83.7213m  616.2793m 
 -435.67475m  709.8803n  699.9999m   83.8627m  616.1378m 
 -435.57475m  714.0245n  699.9999m   84.0042m  615.9964m 
 -435.47475m  718.1934n  699.9999m   84.1456m  615.8550m 
 -435.37475m  722.3870n  699.9999m   84.2870m  615.7136m 
 -435.27475m  726.6055n  699.9999m   84.4284m  615.5722m 
 -435.17475m  730.8492n  699.9999m   84.5698m  615.4308m 
 -435.07475m  735.1180n  699.9999m   84.7113m  615.2893m 
 -434.97475m  739.4122n  699.9999m   84.8527m  615.1479m 
 -434.87475m  743.7320n  699.9999m   84.9941m  615.0065m 
 -434.77475m  748.0775n  699.9999m   85.1355m  614.8651m 
 -434.67475m  752.4487n  699.9999m   85.2769m  614.7237m 
 -434.57475m  756.8460n  699.9999m   85.4184m  614.5823m 
 -434.47475m  761.2694n  699.9999m   85.5598m  614.4408m 
 -434.37475m  765.7192n  699.9999m   85.7012m  614.2994m 
 -434.27475m  770.1954n  699.9999m   85.8426m  614.1580m 
 -434.17475m  774.6982n  699.9999m   85.9840m  614.0166m 
 -434.07475m  779.2278n  699.9999m   86.1255m  613.8752m 
 -433.97475m  783.7844n  699.9999m   86.2669m  613.7338m 
 -433.87475m  788.3681n  699.9999m   86.4083m  613.5923m 
 -433.77475m  792.9790n  699.9999m   86.5497m  613.4509m 
 -433.67475m  797.6174n  699.9999m   86.6911m  613.3095m 
 -433.57475m  802.2834n  699.9998m   86.8326m  613.1681m 
 -433.47475m  806.9771n  699.9998m   86.9740m  613.0267m 
 -433.37475m  811.6988n  699.9998m   87.1154m  612.8853m 
 -433.27475m  816.4486n  699.9998m   87.2568m  612.7438m 
 -433.17475m  821.2267n  699.9998m   87.3982m  612.6024m 
 -433.07475m  826.0332n  699.9998m   87.5397m  612.4610m 
 -432.97475m  830.8683n  699.9998m   87.6811m  612.3196m 
 -432.87475m  835.7322n  699.9998m   87.8225m  612.1782m 
 -432.77475m  840.6250n  699.9998m   87.9639m  612.0368m 
 -432.67475m  845.5470n  699.9998m   88.1053m  611.8953m 
 -432.57475m  850.4984n  699.9998m   88.2468m  611.7539m 
 -432.47475m  855.4792n  699.9998m   88.3882m  611.6125m 
 -432.37475m  860.4896n  699.9998m   88.5296m  611.4711m 
 -432.27475m  865.5299n  699.9998m   88.6710m  611.3297m 
 -432.17475m  870.6002n  699.9998m   88.8124m  611.1883m 
 -432.07475m  875.7008n  699.9998m   88.9539m  611.0468m 
 -431.97475m  880.8317n  699.9998m   89.0953m  610.9054m 
 -431.87475m  885.9932n  699.9998m   89.2367m  610.7640m 
 -431.77475m  891.1854n  699.9998m   89.3781m  610.6226m 
 -431.67475m  896.4086n  699.9998m   89.5196m  610.4812m 
 -431.57475m  901.6629n  699.9998m   89.6610m  610.3398m 
 -431.47475m  906.9485n  699.9998m   89.8024m  610.1983m 
 -431.37475m  912.2657n  699.9998m   89.9438m  610.0569m 
 -431.27475m  917.6145n  699.9998m   90.0852m  609.9155m 
 -431.17475m  922.9952n  699.9998m   90.2267m  609.7741m 
 -431.07475m  928.4079n  699.9998m   90.3681m  609.6327m 
 -430.97475m  933.8530n  699.9998m   90.5095m  609.4913m 
 -430.87475m  939.3305n  699.9998m   90.6509m  609.3498m 
 -430.77475m  944.8407n  699.9998m   90.7923m  609.2084m 
 -430.67475m  950.3837n  699.9998m   90.9338m  609.0670m 
 -430.57475m  955.9598n  699.9998m   91.0752m  608.9256m 
 -430.47475m  961.5691n  699.9998m   91.2166m  608.7842m 
 -430.37475m  967.2119n  699.9998m   91.3580m  608.6428m 
 -430.27475m  972.8884n  699.9998m   91.4994m  608.5014m 
 -430.17475m  978.5987n  699.9998m   91.6409m  608.3599m 
 -430.07475m  984.3430n  699.9998m   91.7823m  608.2185m 
 -429.97475m  990.1217n  699.9998m   91.9237m  608.0771m 
 -429.87475m  995.9348n  699.9998m   92.0651m  607.9357m 
 -429.77475m    1.0018u  699.9998m   92.2065m  607.7943m 
 -429.67475m    1.0077u  699.9998m   92.3480m  607.6529m 
 -429.57475m    1.0136u  699.9998m   92.4894m  607.5114m 
 -429.47475m    1.0195u  699.9998m   92.6308m  607.3700m 
 -429.37475m    1.0255u  699.9998m   92.7722m  607.2286m 
 -429.27475m    1.0315u  699.9998m   92.9136m  607.0872m 
 -429.17475m    1.0376u  699.9998m   93.0551m  606.9458m 
 -429.07475m    1.0437u  699.9998m   93.1965m  606.8044m 
 -428.97475m    1.0498u  699.9998m   93.3379m  606.6630m 
 -428.87475m    1.0560u  699.9998m   93.4793m  606.5215m 
 -428.77475m    1.0622u  699.9998m   93.6207m  606.3801m 
 -428.67475m    1.0685u  699.9998m   93.7622m  606.2387m 
 -428.57475m    1.0747u  699.9998m   93.9036m  606.0973m 
 -428.47475m    1.0811u  699.9998m   94.0450m  605.9559m 
 -428.37475m    1.0874u  699.9998m   94.1864m  605.8145m 
 -428.27475m    1.0938u  699.9998m   94.3278m  605.6730m 
 -428.17475m    1.1002u  699.9998m   94.4693m  605.5316m 
 -428.07475m    1.1067u  699.9998m   94.6107m  605.3902m 
 -427.97475m    1.1132u  699.9998m   94.7521m  605.2488m 
 -427.87475m    1.1198u  699.9998m   94.8935m  605.1074m 
 -427.77475m    1.1264u  699.9998m   95.0349m  604.9660m 
 -427.67475m    1.1330u  699.9998m   95.1764m  604.8246m 
 -427.57475m    1.1396u  699.9998m   95.3178m  604.6831m 
 -427.47475m    1.1464u  699.9998m   95.4592m  604.5417m 
 -427.37475m    1.1531u  699.9998m   95.6006m  604.4003m 
 -427.27475m    1.1599u  699.9998m   95.7420m  604.2589m 
 -427.17475m    1.1667u  699.9998m   95.8835m  604.1175m 
 -427.07475m    1.1736u  699.9998m   96.0249m  603.9761m 
 -426.97475m    1.1805u  699.9998m   96.1663m  603.8347m 
 -426.87475m    1.1874u  699.9998m   96.3077m  603.6932m 
 -426.77475m    1.1944u  699.9998m   96.4491m  603.5518m 
 -426.67475m    1.2015u  699.9998m   96.5906m  603.4104m 
 -426.57475m    1.2085u  699.9998m   96.7320m  603.2690m 
 -426.47475m    1.2157u  699.9998m   96.8734m  603.1276m 
 -426.37475m    1.2228u  699.9998m   97.0148m  602.9862m 
 -426.27475m    1.2300u  699.9998m   97.1562m  602.8448m 
 -426.17475m    1.2373u  699.9998m   97.2977m  602.7033m 
 -426.07475m    1.2446u  699.9998m   97.4391m  602.5619m 
 -425.97475m    1.2519u  699.9998m   97.5805m  602.4205m 
 -425.87475m    1.2593u  699.9998m   97.7219m  602.2791m 
 -425.77475m    1.2667u  699.9998m   97.8633m  602.1377m 
 -425.67475m    1.2742u  699.9998m   98.0048m  601.9963m 
 -425.57475m    1.2817u  699.9998m   98.1462m  601.8549m 
 -425.47475m    1.2892u  699.9998m   98.2876m  601.7134m 
 -425.37475m    1.2968u  699.9998m   98.4290m  601.5720m 
 -425.27475m    1.3045u  699.9998m   98.5704m  601.4306m 
 -425.17475m    1.3122u  699.9998m   98.7119m  601.2892m 
 -425.07475m    1.3199u  699.9998m   98.8533m  601.1478m 
 -424.97475m    1.3277u  699.9998m   98.9947m  601.0064m 
 -424.87475m    1.3355u  699.9998m   99.1361m  600.8650m 
 -424.77475m    1.3434u  699.9998m   99.2775m  600.7236m 
 -424.67475m    1.3513u  699.9998m   99.4190m  600.5821m 
 -424.57475m    1.3593u  699.9998m   99.5604m  600.4407m 
 -424.47475m    1.3673u  699.9997m   99.7018m  600.2993m 
 -424.37475m    1.3754u  699.9997m   99.8432m  600.1579m 
 -424.27475m    1.3835u  699.9997m   99.9846m  600.0165m 
 -424.17475m    1.3917u  699.9997m  100.1261m  599.8751m 
 -424.07475m    1.3999u  699.9997m  100.2675m  599.7337m 
 -423.97475m    1.4081u  699.9997m  100.4089m  599.5922m 
 -423.87475m    1.4165u  699.9997m  100.5503m  599.4508m 
 -423.77475m    1.4248u  699.9997m  100.6917m  599.3094m 
 -423.67475m    1.4332u  699.9997m  100.8332m  599.1680m 
 -423.57475m    1.4417u  699.9997m  100.9746m  599.0266m 
 -423.47475m    1.4502u  699.9997m  101.1160m  598.8852m 
 -423.37475m    1.4588u  699.9997m  101.2574m  598.7438m 
 -423.27475m    1.4674u  699.9997m  101.3988m  598.6024m 
 -423.17475m    1.4761u  699.9997m  101.5403m  598.4609m 
 -423.07475m    1.4848u  699.9997m  101.6817m  598.3195m 
 -422.97475m    1.4936u  699.9997m  101.8231m  598.1781m 
 -422.87475m    1.5024u  699.9997m  101.9645m  598.0367m 
 -422.77475m    1.5113u  699.9997m  102.1059m  597.8953m 
 -422.67475m    1.5202u  699.9997m  102.2474m  597.7539m 
 -422.57475m    1.5292u  699.9997m  102.3888m  597.6125m 
 -422.47475m    1.5382u  699.9997m  102.5302m  597.4711m 
 -422.37475m    1.5473u  699.9997m  102.6716m  597.3296m 
 -422.27475m    1.5565u  699.9997m  102.8130m  597.1882m 
 -422.17475m    1.5657u  699.9997m  102.9545m  597.0468m 
 -422.07475m    1.5749u  699.9997m  103.0959m  596.9054m 
 -421.97475m    1.5842u  699.9997m  103.2373m  596.7640m 
 -421.87475m    1.5936u  699.9997m  103.3787m  596.6226m 
 -421.77475m    1.6030u  699.9997m  103.5201m  596.4812m 
 -421.67475m    1.6125u  699.9997m  103.6616m  596.3398m 
 -421.57475m    1.6220u  699.9997m  103.8030m  596.1983m 
 -421.47475m    1.6316u  699.9997m  103.9444m  596.0569m 
 -421.37475m    1.6413u  699.9997m  104.0858m  595.9155m 
 -421.27475m    1.6510u  699.9997m  104.2272m  595.7741m 
 -421.17475m    1.6608u  699.9997m  104.3687m  595.6327m 
 -421.07475m    1.6706u  699.9997m  104.5101m  595.4913m 
 -420.97475m    1.6805u  699.9997m  104.6515m  595.3499m 
 -420.87475m    1.6904u  699.9997m  104.7929m  595.2085m 
 -420.77475m    1.7005u  699.9997m  104.9343m  595.0671m 
 -420.67475m    1.7105u  699.9997m  105.0758m  594.9256m 
 -420.57475m    1.7207u  699.9997m  105.2172m  594.7842m 
 -420.47475m    1.7308u  699.9997m  105.3586m  594.6428m 
 -420.37475m    1.7411u  699.9997m  105.5000m  594.5014m 
 -420.27475m    1.7514u  699.9997m  105.6414m  594.3600m 
 -420.17475m    1.7618u  699.9997m  105.7829m  594.2186m 
 -420.07475m    1.7722u  699.9997m  105.9243m  594.0772m 
 -419.97475m    1.7827u  699.9997m  106.0657m  593.9358m 
 -419.87475m    1.7933u  699.9997m  106.2071m  593.7944m 
 -419.77475m    1.8039u  699.9997m  106.3485m  593.6529m 
 -419.67475m    1.8146u  699.9997m  106.4900m  593.5115m 
 -419.57475m    1.8253u  699.9997m  106.6314m  593.3701m 
 -419.47475m    1.8362u  699.9997m  106.7728m  593.2287m 
 -419.37475m    1.8470u  699.9997m  106.9142m  593.0873m 
 -419.27475m    1.8580u  699.9997m  107.0556m  592.9459m 
 -419.17475m    1.8690u  699.9997m  107.1970m  592.8045m 
 -419.07475m    1.8801u  699.9997m  107.3385m  592.6631m 
 -418.97475m    1.8912u  699.9997m  107.4799m  592.5217m 
 -418.87475m    1.9024u  699.9997m  107.6213m  592.3803m 
 -418.77475m    1.9137u  699.9997m  107.7627m  592.2388m 
 -418.67475m    1.9251u  699.9997m  107.9041m  592.0974m 
 -418.57475m    1.9365u  699.9996m  108.0456m  591.9560m 
 -418.47475m    1.9480u  699.9996m  108.1870m  591.8146m 
 -418.37475m    1.9595u  699.9996m  108.3284m  591.6732m 
 -418.27475m    1.9712u  699.9996m  108.4698m  591.5318m 
 -418.17475m    1.9829u  699.9996m  108.6112m  591.3904m 
 -418.07475m    1.9946u  699.9996m  108.7527m  591.2490m 
 -417.97475m    2.0065u  699.9996m  108.8941m  591.1076m 
 -417.87475m    2.0184u  699.9996m  109.0355m  590.9662m 
 -417.77475m    2.0304u  699.9996m  109.1769m  590.8247m 
 -417.67475m    2.0424u  699.9996m  109.3183m  590.6833m 
 -417.57475m    2.0545u  699.9996m  109.4598m  590.5419m 
 -417.47475m    2.0667u  699.9996m  109.6012m  590.4005m 
 -417.37475m    2.0790u  699.9996m  109.7426m  590.2591m 
 -417.27475m    2.0913u  699.9996m  109.8840m  590.1177m 
 -417.17475m    2.1038u  699.9996m  110.0254m  589.9763m 
 -417.07475m    2.1163u  699.9996m  110.1669m  589.8349m 
 -416.97475m    2.1288u  699.9996m  110.3083m  589.6935m 
 -416.87475m    2.1415u  699.9996m  110.4497m  589.5521m 
 -416.77475m    2.1542u  699.9996m  110.5911m  589.4107m 
 -416.67475m    2.1670u  699.9996m  110.7325m  589.2692m 
 -416.57475m    2.1799u  699.9996m  110.8740m  589.1278m 
 -416.47475m    2.1928u  699.9996m  111.0154m  588.9864m 
 -416.37475m    2.2059u  699.9996m  111.1568m  588.8450m 
 -416.27475m    2.2190u  699.9996m  111.2982m  588.7036m 
 -416.17475m    2.2322u  699.9996m  111.4396m  588.5622m 
 -416.07475m    2.2454u  699.9996m  111.5810m  588.4208m 
 -415.97475m    2.2588u  699.9996m  111.7225m  588.2794m 
 -415.87475m    2.2722u  699.9996m  111.8639m  588.1380m 
 -415.77475m    2.2857u  699.9996m  112.0053m  587.9966m 
 -415.67475m    2.2993u  699.9996m  112.1467m  587.8552m 
 -415.57475m    2.3130u  699.9996m  112.2881m  587.7138m 
 -415.47475m    2.3267u  699.9996m  112.4296m  587.5723m 
 -415.37475m    2.3406u  699.9996m  112.5710m  587.4309m 
 -415.27475m    2.3545u  699.9996m  112.7124m  587.2895m 
 -415.17475m    2.3685u  699.9996m  112.8538m  587.1481m 
 -415.07475m    2.3826u  699.9996m  112.9952m  587.0067m 
 -414.97475m    2.3968u  699.9996m  113.1367m  586.8653m 
 -414.87475m    2.4110u  699.9996m  113.2781m  586.7239m 
 -414.77475m    2.4254u  699.9996m  113.4195m  586.5825m 
 -414.67475m    2.4398u  699.9996m  113.5609m  586.4411m 
 -414.57475m    2.4543u  699.9996m  113.7023m  586.2997m 
 -414.47475m    2.4689u  699.9996m  113.8437m  586.1583m 
 -414.37475m    2.4836u  699.9996m  113.9852m  586.0169m 
 -414.27475m    2.4984u  699.9996m  114.1266m  585.8755m 
 -414.17475m    2.5133u  699.9995m  114.2680m  585.7341m 
 -414.07475m    2.5283u  699.9995m  114.4094m  585.5927m 
 -413.97475m    2.5433u  699.9995m  114.5508m  585.4512m 
 -413.87475m    2.5585u  699.9995m  114.6923m  585.3098m 
 -413.77475m    2.5737u  699.9995m  114.8337m  585.1684m 
 -413.67475m    2.5890u  699.9995m  114.9751m  585.0270m 
 -413.57475m    2.6045u  699.9995m  115.1165m  584.8856m 
 -413.47475m    2.6200u  699.9995m  115.2579m  584.7442m 
 -413.37475m    2.6356u  699.9995m  115.3994m  584.6028m 
 -413.27475m    2.6513u  699.9995m  115.5408m  584.4614m 
 -413.17475m    2.6671u  699.9995m  115.6822m  584.3200m 
 -413.07475m    2.6830u  699.9995m  115.8236m  584.1786m 
 -412.97475m    2.6990u  699.9995m  115.9650m  584.0372m 
 -412.87475m    2.7151u  699.9995m  116.1064m  583.8958m 
 -412.77475m    2.7312u  699.9995m  116.2479m  583.7544m 
 -412.67475m    2.7475u  699.9995m  116.3893m  583.6130m 
 -412.57475m    2.7639u  699.9995m  116.5307m  583.4716m 
 -412.47475m    2.7804u  699.9995m  116.6721m  583.3302m 
 -412.37475m    2.7970u  699.9995m  116.8135m  583.1888m 
 -412.27475m    2.8136u  699.9995m  116.9550m  583.0474m 
 -412.17475m    2.8304u  699.9995m  117.0964m  582.9059m 
 -412.07475m    2.8473u  699.9995m  117.2378m  582.7645m 
 -411.97475m    2.8643u  699.9995m  117.3792m  582.6231m 
 -411.87475m    2.8814u  699.9995m  117.5206m  582.4817m 
 -411.77475m    2.8986u  699.9995m  117.6621m  582.3403m 
 -411.67475m    2.9159u  699.9995m  117.8035m  582.1989m 
 -411.57475m    2.9333u  699.9995m  117.9449m  582.0575m 
 -411.47475m    2.9508u  699.9995m  118.0863m  581.9161m 
 -411.37475m    2.9684u  699.9995m  118.2277m  581.7747m 
 -411.27475m    2.9861u  699.9995m  118.3691m  581.6333m 
 -411.17475m    3.0039u  699.9995m  118.5106m  581.4919m 
 -411.07475m    3.0219u  699.9995m  118.6520m  581.3505m 
 -410.97475m    3.0399u  699.9995m  118.7934m  581.2091m 
 -410.87475m    3.0581u  699.9995m  118.9348m  581.0677m 
 -410.77475m    3.0763u  699.9995m  119.0762m  580.9263m 
 -410.67475m    3.0947u  699.9994m  119.2177m  580.7849m 
 -410.57475m    3.1132u  699.9994m  119.3591m  580.6435m 
 -410.47475m    3.1318u  699.9994m  119.5005m  580.5021m 
 -410.37475m    3.1505u  699.9994m  119.6419m  580.3607m 
 -410.27475m    3.1693u  699.9994m  119.7833m  580.2193m 
 -410.17475m    3.1882u  699.9994m  119.9247m  580.0779m 
 -410.07475m    3.2073u  699.9994m  120.0662m  579.9365m 
 -409.97475m    3.2264u  699.9994m  120.2076m  579.7951m 
 -409.87475m    3.2457u  699.9994m  120.3490m  579.6537m 
 -409.77475m    3.2651u  699.9994m  120.4904m  579.5123m 
 -409.67475m    3.2846u  699.9994m  120.6318m  579.3709m 
 -409.57475m    3.3043u  699.9994m  120.7733m  579.2295m 
 -409.47475m    3.3240u  699.9994m  120.9147m  579.0881m 
 -409.37475m    3.3439u  699.9994m  121.0561m  578.9467m 
 -409.27475m    3.3639u  699.9994m  121.1975m  578.8053m 
 -409.17475m    3.3840u  699.9994m  121.3389m  578.6639m 
 -409.07475m    3.4042u  699.9994m  121.4803m  578.5225m 
 -408.97475m    3.4246u  699.9994m  121.6218m  578.3811m 
 -408.87475m    3.4451u  699.9994m  121.7632m  578.2397m 
 -408.77475m    3.4657u  699.9994m  121.9046m  578.0983m 
 -408.67475m    3.4864u  699.9994m  122.0460m  577.9569m 
 -408.57475m    3.5073u  699.9994m  122.1874m  577.8155m 
 -408.47475m    3.5283u  699.9994m  122.3288m  577.6741m 
 -408.37475m    3.5494u  699.9994m  122.4703m  577.5327m 
 -408.27475m    3.5706u  699.9994m  122.6117m  577.3913m 
 -408.17475m    3.5920u  699.9994m  122.7531m  577.2499m 
 -408.07475m    3.6135u  699.9994m  122.8945m  577.1085m 
 -407.97475m    3.6351u  699.9994m  123.0359m  576.9671m 
 -407.87475m    3.6569u  699.9994m  123.1774m  576.8257m 
 -407.77475m    3.6788u  699.9993m  123.3188m  576.6843m 
 -407.67475m    3.7008u  699.9993m  123.4602m  576.5429m 
 -407.57475m    3.7230u  699.9993m  123.6016m  576.4015m 
 -407.47475m    3.7453u  699.9993m  123.7430m  576.2601m 
 -407.37475m    3.7677u  699.9993m  123.8844m  576.1187m 
 -407.27475m    3.7902u  699.9993m  124.0259m  575.9773m 
 -407.17475m    3.8130u  699.9993m  124.1673m  575.8359m 
 -407.07475m    3.8358u  699.9993m  124.3087m  575.6945m 
 -406.97475m    3.8588u  699.9993m  124.4501m  575.5531m 
 -406.87475m    3.8819u  699.9993m  124.5915m  575.4117m 
 -406.77475m    3.9052u  699.9993m  124.7329m  575.2703m 
 -406.67475m    3.9286u  699.9993m  124.8744m  575.1289m 
 -406.57475m    3.9521u  699.9993m  125.0158m  574.9875m 
 -406.47475m    3.9758u  699.9993m  125.1572m  574.8461m 
 -406.37475m    3.9996u  699.9993m  125.2986m  574.7047m 
 -406.27475m    4.0236u  699.9993m  125.4400m  574.5633m 
 -406.17475m    4.0477u  699.9993m  125.5815m  574.4219m 
 -406.07475m    4.0720u  699.9993m  125.7229m  574.2805m 
 -405.97475m    4.0964u  699.9993m  125.8643m  574.1391m 
 -405.87475m    4.1210u  699.9993m  126.0057m  573.9977m 
 -405.77475m    4.1457u  699.9993m  126.1471m  573.8563m 
 -405.67475m    4.1705u  699.9993m  126.2885m  573.7149m 
 -405.57475m    4.1956u  699.9993m  126.4300m  573.5735m 
 -405.47475m    4.2207u  699.9993m  126.5714m  573.4321m 
 -405.37475m    4.2460u  699.9993m  126.7128m  573.2907m 
 -405.27475m    4.2715u  699.9992m  126.8542m  573.1493m 
 -405.17475m    4.2971u  699.9992m  126.9956m  573.0079m 
 -405.07475m    4.3229u  699.9992m  127.1370m  572.8665m 
 -404.97475m    4.3489u  699.9992m  127.2785m  572.7251m 
 -404.87475m    4.3750u  699.9992m  127.4199m  572.5837m 
 -404.77475m    4.4012u  699.9992m  127.5613m  572.4423m 
 -404.67475m    4.4277u  699.9992m  127.7027m  572.3009m 
 -404.57475m    4.4542u  699.9992m  127.8441m  572.1595m 
 -404.47475m    4.4810u  699.9992m  127.9855m  572.0182m 
 -404.37475m    4.5079u  699.9992m  128.1270m  571.8768m 
 -404.27475m    4.5350u  699.9992m  128.2684m  571.7354m 
 -404.17475m    4.5622u  699.9992m  128.4098m  571.5940m 
 -404.07475m    4.5896u  699.9992m  128.5512m  571.4526m 
 -403.97475m    4.6172u  699.9992m  128.6926m  571.3112m 
 -403.87475m    4.6449u  699.9992m  128.8340m  571.1698m 
 -403.77475m    4.6728u  699.9992m  128.9755m  571.0284m 
 -403.67475m    4.7009u  699.9992m  129.1169m  570.8870m 
 -403.57475m    4.7291u  699.9992m  129.2583m  570.7456m 
 -403.47475m    4.7575u  699.9992m  129.3997m  570.6042m 
 -403.37475m    4.7861u  699.9992m  129.5411m  570.4628m 
 -403.27475m    4.8149u  699.9992m  129.6825m  570.3214m 
 -403.17475m    4.8438u  699.9992m  129.8240m  570.1800m 
 -403.07475m    4.8729u  699.9991m  129.9654m  570.0386m 
 -402.97475m    4.9022u  699.9991m  130.1068m  569.8973m 
 -402.87475m    4.9317u  699.9991m  130.2482m  569.7559m 
 -402.77475m    4.9614u  699.9991m  130.3896m  569.6145m 
 -402.67475m    4.9912u  699.9991m  130.5310m  569.4731m 
 -402.57475m    5.0212u  699.9991m  130.6725m  569.3317m 
 -402.47475m    5.0514u  699.9991m  130.8139m  569.1903m 
 -402.37475m    5.0818u  699.9991m  130.9553m  569.0489m 
 -402.27475m    5.1124u  699.9991m  131.0967m  568.9075m 
 -402.17475m    5.1431u  699.9991m  131.2381m  568.7661m 
 -402.07475m    5.1741u  699.9991m  131.3795m  568.6247m 
 -401.97475m    5.2052u  699.9991m  131.5210m  568.4833m 
 -401.87475m    5.2365u  699.9991m  131.6624m  568.3420m 
 -401.77475m    5.2680u  699.9991m  131.8038m  568.2006m 
 -401.67475m    5.2997u  699.9991m  131.9452m  568.0592m 
 -401.57475m    5.3316u  699.9991m  132.0866m  567.9178m 
 -401.47475m    5.3637u  699.9991m  132.2280m  567.7764m 
 -401.37475m    5.3960u  699.9991m  132.3694m  567.6350m 
 -401.27475m    5.4285u  699.9991m  132.5109m  567.4936m 
 -401.17475m    5.4612u  699.9990m  132.6523m  567.3522m 
 -401.07475m    5.4941u  699.9990m  132.7937m  567.2108m 
 -400.97475m    5.5272u  699.9990m  132.9351m  567.0695m 
 -400.87475m    5.5605u  699.9990m  133.0765m  566.9281m 
 -400.77475m    5.5939u  699.9990m  133.2179m  566.7867m 
 -400.67475m    5.6276u  699.9990m  133.3594m  566.6453m 
 -400.57475m    5.6615u  699.9990m  133.5008m  566.5039m 
 -400.47475m    5.6957u  699.9990m  133.6422m  566.3625m 
 -400.37475m    5.7300u  699.9990m  133.7836m  566.2211m 
 -400.27475m    5.7645u  699.9990m  133.9250m  566.0797m 
 -400.17475m    5.7992u  699.9990m  134.0664m  565.9384m 
 -400.07475m    5.8342u  699.9990m  134.2079m  565.7970m 
 -399.97475m    5.8694u  699.9990m  134.3493m  565.6556m 
 -399.87475m    5.9047u  699.9990m  134.4907m  565.5142m 
 -399.77475m    5.9403u  699.9990m  134.6321m  565.3728m 
 -399.67475m    5.9761u  699.9990m  134.7735m  565.2314m 
 -399.57475m    6.0122u  699.9990m  134.9149m  565.0900m 
 -399.47475m    6.0484u  699.9989m  135.0563m  564.9487m 
 -399.37475m    6.0849u  699.9989m  135.1978m  564.8073m 
 -399.27475m    6.1216u  699.9989m  135.3392m  564.6659m 
 -399.17475m    6.1585u  699.9989m  135.4806m  564.5245m 
 -399.07475m    6.1957u  699.9989m  135.6220m  564.3831m 
 -398.97475m    6.2331u  699.9989m  135.7634m  564.2417m 
 -398.87475m    6.2707u  699.9989m  135.9048m  564.1003m 
 -398.77475m    6.3085u  699.9989m  136.0462m  563.9590m 
 -398.67475m    6.3466u  699.9989m  136.1877m  563.8176m 
 -398.57475m    6.3849u  699.9989m  136.3291m  563.6762m 
 -398.47475m    6.4234u  699.9989m  136.4705m  563.5348m 
 -398.37475m    6.4622u  699.9989m  136.6119m  563.3934m 
 -398.27475m    6.5012u  699.9989m  136.7533m  563.2520m 
 -398.17475m    6.5404u  699.9989m  136.8947m  563.1107m 
 -398.07475m    6.5799u  699.9989m  137.0362m  562.9693m 
 -397.97475m    6.6196u  699.9989m  137.1776m  562.8279m 
 -397.87475m    6.6596u  699.9988m  137.3190m  562.6865m 
 -397.77475m    6.6998u  699.9988m  137.4604m  562.5451m 
 -397.67475m    6.7403u  699.9988m  137.6018m  562.4038m 
 -397.57475m    6.7810u  699.9988m  137.7432m  562.2624m 
 -397.47475m    6.8220u  699.9988m  137.8846m  562.1210m 
 -397.37475m    6.8632u  699.9988m  138.0261m  561.9796m 
 -397.27475m    6.9046u  699.9988m  138.1675m  561.8382m 
 -397.17475m    6.9464u  699.9988m  138.3089m  561.6969m 
 -397.07475m    6.9883u  699.9988m  138.4503m  561.5555m 
 -396.97475m    7.0306u  699.9988m  138.5917m  561.4141m 
 -396.87475m    7.0731u  699.9988m  138.7331m  561.2727m 
 -396.77475m    7.1158u  699.9988m  138.8745m  561.1313m 
 -396.67475m    7.1588u  699.9988m  139.0160m  560.9900m 
 -396.57475m    7.2021u  699.9988m  139.1574m  560.8486m 
 -396.47475m    7.2456u  699.9987m  139.2988m  560.7072m 
 -396.37475m    7.2895u  699.9987m  139.4402m  560.5658m 
 -396.27475m    7.3335u  699.9987m  139.5816m  560.4245m 
 -396.17475m    7.3779u  699.9987m  139.7230m  560.2831m 
 -396.07475m    7.4225u  699.9987m  139.8644m  560.1417m 
 -395.97475m    7.4674u  699.9987m  140.0059m  560.0003m 
 -395.87475m    7.5126u  699.9987m  140.1473m  559.8589m 
 -395.77475m    7.5580u  699.9987m  140.2887m  559.7176m 
 -395.67475m    7.6038u  699.9987m  140.4301m  559.5762m 
 -395.57475m    7.6498u  699.9987m  140.5715m  559.4348m 
 -395.47475m    7.6961u  699.9987m  140.7129m  559.2934m 
 -395.37475m    7.7426u  699.9987m  140.8543m  559.1521m 
 -395.27475m    7.7895u  699.9987m  140.9958m  559.0107m 
 -395.17475m    7.8366u  699.9987m  141.1372m  558.8693m 
 -395.07475m    7.8841u  699.9986m  141.2786m  558.7279m 
 -394.97475m    7.9318u  699.9986m  141.4200m  558.5866m 
 -394.87475m    7.9798u  699.9986m  141.5614m  558.4452m 
 -394.77475m    8.0281u  699.9986m  141.7028m  558.3038m 
 -394.67475m    8.0768u  699.9986m  141.8442m  558.1625m 
 -394.57475m    8.1257u  699.9986m  141.9856m  558.0211m 
 -394.47475m    8.1749u  699.9986m  142.1271m  557.8797m 
 -394.37475m    8.2244u  699.9986m  142.2685m  557.7383m 
 -394.27475m    8.2742u  699.9986m  142.4099m  557.5970m 
 -394.17475m    8.3244u  699.9986m  142.5513m  557.4556m 
 -394.07475m    8.3748u  699.9986m  142.6927m  557.3142m 
 -393.97475m    8.4255u  699.9986m  142.8341m  557.1729m 
 -393.87475m    8.4766u  699.9985m  142.9755m  557.0315m 
 -393.77475m    8.5280u  699.9985m  143.1169m  556.8901m 
 -393.67475m    8.5797u  699.9985m  143.2584m  556.7487m 
 -393.57475m    8.6317u  699.9985m  143.3998m  556.6074m 
 -393.47475m    8.6840u  699.9985m  143.5412m  556.4660m 
 -393.37475m    8.7366u  699.9985m  143.6826m  556.3246m 
 -393.27475m    8.7896u  699.9985m  143.8240m  556.1833m 
 -393.17475m    8.8429u  699.9985m  143.9654m  556.0419m 
 -393.07475m    8.8965u  699.9985m  144.1068m  555.9005m 
 -392.97475m    8.9505u  699.9985m  144.2482m  555.7592m 
 -392.87475m    9.0048u  699.9985m  144.3897m  555.6178m 
 -392.77475m    9.0594u  699.9984m  144.5311m  555.4764m 
 -392.67475m    9.1143u  699.9984m  144.6725m  555.3351m 
 -392.57475m    9.1696u  699.9984m  144.8139m  555.1937m 
 -392.47475m    9.2253u  699.9984m  144.9553m  555.0523m 
 -392.37475m    9.2813u  699.9984m  145.0967m  554.9110m 
 -392.27475m    9.3376u  699.9984m  145.2381m  554.7696m 
 -392.17475m    9.3942u  699.9984m  145.3795m  554.6282m 
 -392.07475m    9.4513u  699.9984m  145.5210m  554.4869m 
 -391.97475m    9.5086u  699.9984m  145.6624m  554.3455m 
 -391.87475m    9.5664u  699.9984m  145.8038m  554.2041m 
 -391.77475m    9.6244u  699.9984m  145.9452m  554.0628m 
 -391.67475m    9.6829u  699.9983m  146.0866m  553.9214m 
 -391.57475m    9.7417u  699.9983m  146.2280m  553.7801m 
 -391.47475m    9.8008u  699.9983m  146.3694m  553.6387m 
 -391.37475m    9.8604u  699.9983m  146.5108m  553.4973m 
 -391.27475m    9.9203u  699.9983m  146.6523m  553.3560m 
 -391.17475m    9.9805u  699.9983m  146.7937m  553.2146m 
 -391.07475m   10.0411u  699.9983m  146.9351m  553.0733m 
 -390.97475m   10.1021u  699.9983m  147.0765m  552.9319m 
 -390.87475m   10.1635u  699.9983m  147.2179m  552.7905m 
 -390.77475m   10.2253u  699.9983m  147.3593m  552.6492m 
 -390.67475m   10.2874u  699.9982m  147.5007m  552.5078m 
 -390.57475m   10.3500u  699.9982m  147.6421m  552.3665m 
 -390.47475m   10.4129u  699.9982m  147.7835m  552.2251m 
 -390.37475m   10.4762u  699.9982m  147.9250m  552.0837m 
 -390.27475m   10.5399u  699.9982m  148.0664m  551.9424m 
 -390.17475m   10.6039u  699.9982m  148.2078m  551.8010m 
 -390.07475m   10.6684u  699.9982m  148.3492m  551.6597m 
 -389.97475m   10.7333u  699.9982m  148.4906m  551.5183m 
 -389.87475m   10.7986u  699.9982m  148.6320m  551.3770m 
 -389.77475m   10.8642u  699.9982m  148.7734m  551.2356m 
 -389.67475m   10.9303u  699.9981m  148.9148m  551.0942m 
 -389.57475m   10.9968u  699.9981m  149.0562m  550.9529m 
 -389.47475m   11.0637u  699.9981m  149.1976m  550.8115m 
 -389.37475m   11.1310u  699.9981m  149.3391m  550.6702m 
 -389.27475m   11.1988u  699.9981m  149.4805m  550.5288m 
 -389.17475m   11.2669u  699.9981m  149.6219m  550.3875m 
 -389.07475m   11.3355u  699.9981m  149.7633m  550.2461m 
 -388.97475m   11.4045u  699.9981m  149.9047m  550.1048m 
 -388.87475m   11.4739u  699.9981m  150.0461m  549.9634m 
 -388.77475m   11.5437u  699.9980m  150.1875m  549.8221m 
 -388.67475m   11.6140u  699.9980m  150.3289m  549.6807m 
 -388.57475m   11.6847u  699.9980m  150.4703m  549.5394m 
 -388.47475m   11.7559u  699.9980m  150.6117m  549.3980m 
 -388.37475m   11.8275u  699.9980m  150.7532m  549.2567m 
 -388.27475m   11.8995u  699.9980m  150.8946m  549.1153m 
 -388.17475m   11.9720u  699.9980m  151.0360m  548.9740m 
 -388.07475m   12.0449u  699.9980m  151.1774m  548.8326m 
 -387.97475m   12.1183u  699.9979m  151.3188m  548.6913m 
 -387.87475m   12.1921u  699.9979m  151.4602m  548.5499m 
 -387.77475m   12.2664u  699.9979m  151.6016m  548.4086m 
 -387.67475m   12.3412u  699.9979m  151.7430m  548.2672m 
 -387.57475m   12.4164u  699.9979m  151.8844m  548.1259m 
 -387.47475m   12.4920u  699.9979m  152.0258m  547.9845m 
 -387.37475m   12.5682u  699.9979m  152.1673m  547.8432m 
 -387.27475m   12.6448u  699.9979m  152.3087m  547.7018m 
 -387.17475m   12.7219u  699.9978m  152.4501m  547.5605m 
 -387.07475m   12.7995u  699.9978m  152.5915m  547.4192m 
 -386.97475m   12.8775u  699.9978m  152.7329m  547.2778m 
 -386.87475m   12.9560u  699.9978m  152.8743m  547.1365m 
 -386.77475m   13.0350u  699.9978m  153.0157m  546.9951m 
 -386.67475m   13.1145u  699.9978m  153.1571m  546.8538m 
 -386.57475m   13.1945u  699.9978m  153.2985m  546.7124m 
 -386.47475m   13.2750u  699.9978m  153.4399m  546.5711m 
 -386.37475m   13.3560u  699.9977m  153.5813m  546.4298m 
 -386.27475m   13.4375u  699.9977m  153.7227m  546.2884m 
 -386.17475m   13.5195u  699.9977m  153.8642m  546.1471m 
 -386.07475m   13.6020u  699.9977m  154.0056m  546.0057m 
 -385.97475m   13.6850u  699.9977m  154.1470m  545.8644m 
 -385.87475m   13.7685u  699.9977m  154.2884m  545.7231m 
 -385.77475m   13.8526u  699.9977m  154.4298m  545.5817m 
 -385.67475m   13.9372u  699.9976m  154.5712m  545.4404m 
 -385.57475m   14.0222u  699.9976m  154.7126m  545.2991m 
 -385.47475m   14.1079u  699.9976m  154.8540m  545.1577m 
 -385.37475m   14.1940u  699.9976m  154.9954m  545.0164m 
 -385.27475m   14.2807u  699.9976m  155.1368m  544.8751m 
 -385.17475m   14.3679u  699.9976m  155.2782m  544.7337m 
 -385.07475m   14.4557u  699.9976m  155.4196m  544.5924m 
 -384.97475m   14.5440u  699.9976m  155.5610m  544.4511m 
 -384.87475m   14.6328u  699.9975m  155.7025m  544.3097m 
 -384.77475m   14.7222u  699.9975m  155.8439m  544.1684m 
 -384.67475m   14.8122u  699.9975m  155.9853m  544.0271m 
 -384.57475m   14.9027u  699.9975m  156.1267m  543.8857m 
 -384.47475m   14.9938u  699.9975m  156.2681m  543.7444m 
 -384.37475m   15.0854u  699.9975m  156.4095m  543.6031m 
 -384.27475m   15.1776u  699.9974m  156.5509m  543.4617m 
 -384.17475m   15.2704u  699.9974m  156.6923m  543.3204m 
 -384.07475m   15.3638u  699.9974m  156.8337m  543.1791m 
 -383.97475m   15.4577u  699.9974m  156.9751m  543.0378m 
 -383.87475m   15.5522u  699.9974m  157.1165m  542.8964m 
 -383.77475m   15.6473u  699.9974m  157.2579m  542.7551m 
 -383.67475m   15.7430u  699.9974m  157.3993m  542.6138m 
 -383.57475m   15.8393u  699.9973m  157.5407m  542.4724m 
 -383.47475m   15.9362u  699.9973m  157.6821m  542.3311m 
 -383.37475m   16.0337u  699.9973m  157.8235m  542.1898m 
 -383.27475m   16.1318u  699.9973m  157.9649m  542.0485m 
 -383.17475m   16.2305u  699.9973m  158.1064m  541.9072m 
 -383.07475m   16.3298u  699.9973m  158.2478m  541.7658m 
 -382.97475m   16.4297u  699.9972m  158.3892m  541.6245m 
 -382.87475m   16.5303u  699.9972m  158.5306m  541.4832m 
 -382.77475m   16.6315u  699.9972m  158.6720m  541.3419m 
 -382.67475m   16.7333u  699.9972m  158.8134m  541.2006m 
 -382.57475m   16.8357u  699.9972m  158.9548m  541.0592m 
 -382.47475m   16.9388u  699.9972m  159.0962m  540.9179m 
 -382.37475m   17.0425u  699.9971m  159.2376m  540.7766m 
 -382.27475m   17.1469u  699.9971m  159.3790m  540.6353m 
 -382.17475m   17.2519u  699.9971m  159.5204m  540.4940m 
 -382.07475m   17.3576u  699.9971m  159.6618m  540.3526m 
 -381.97475m   17.4639u  699.9971m  159.8032m  540.2113m 
 -381.87475m   17.5709u  699.9971m  159.9446m  540.0700m 
 -381.77475m   17.6785u  699.9970m  160.0860m  539.9287m 
 -381.67475m   17.7868u  699.9970m  160.2274m  539.7874m 
 -381.57475m   17.8958u  699.9970m  160.3688m  539.6461m 
 -381.47475m   18.0055u  699.9970m  160.5102m  539.5048m 
 -381.37475m   18.1158u  699.9970m  160.6516m  539.3635m 
 -381.27475m   18.2269u  699.9970m  160.7930m  539.2221m 
 -381.17475m   18.3386u  699.9969m  160.9344m  539.0808m 
 -381.07475m   18.4510u  699.9969m  161.0758m  538.9395m 
 -380.97475m   18.5641u  699.9969m  161.2172m  538.7982m 
 -380.87475m   18.6780u  699.9969m  161.3587m  538.6569m 
 -380.77475m   18.7925u  699.9969m  161.5001m  538.5156m 
 -380.67475m   18.9077u  699.9968m  161.6415m  538.3743m 
 -380.57475m   19.0237u  699.9968m  161.7829m  538.2330m 
 -380.47475m   19.1404u  699.9968m  161.9243m  538.0917m 
 -380.37475m   19.2578u  699.9968m  162.0657m  537.9504m 
 -380.27475m   19.3760u  699.9968m  162.2071m  537.8091m 
 -380.17475m   19.4948u  699.9968m  162.3485m  537.6678m 
 -380.07475m   19.6145u  699.9967m  162.4899m  537.5265m 
 -379.97475m   19.7348u  699.9967m  162.6313m  537.3852m 
 -379.87475m   19.8559u  699.9967m  162.7727m  537.2439m 
 -379.77475m   19.9778u  699.9967m  162.9141m  537.1026m 
 -379.67475m   20.1004u  699.9967m  163.0555m  536.9613m 
 -379.57475m   20.2238u  699.9966m  163.1969m  536.8200m 
 -379.47475m   20.3480u  699.9966m  163.3383m  536.6787m 
 -379.37475m   20.4729u  699.9966m  163.4797m  536.5374m 
 -379.27475m   20.5987u  699.9966m  163.6211m  536.3961m 
 -379.17475m   20.7252u  699.9966m  163.7625m  536.2548m 
 -379.07475m   20.8524u  699.9965m  163.9039m  536.1135m 
 -378.97475m   20.9805u  699.9965m  164.0453m  535.9722m 
 -378.87475m   21.1094u  699.9965m  164.1867m  535.8309m 
 -378.77475m   21.2391u  699.9965m  164.3281m  535.6896m 
 -378.67475m   21.3696u  699.9965m  164.4695m  535.5483m 
 -378.57475m   21.5009u  699.9964m  164.6109m  535.4070m 
 -378.47475m   21.6330u  699.9964m  164.7523m  535.2658m 
 -378.37475m   21.7660u  699.9964m  164.8937m  535.1245m 
 -378.27475m   21.8997u  699.9964m  165.0351m  534.9832m 
 -378.17475m   22.0344u  699.9963m  165.1765m  534.8419m 
 -378.07475m   22.1698u  699.9963m  165.3179m  534.7006m 
 -377.97475m   22.3061u  699.9963m  165.4593m  534.5593m 
 -377.87475m   22.4433u  699.9963m  165.6007m  534.4180m 
 -377.77475m   22.5813u  699.9963m  165.7421m  534.2768m 
 -377.67475m   22.7201u  699.9962m  165.8835m  534.1355m 
 -377.57475m   22.8599u  699.9962m  166.0249m  533.9942m 
 -377.47475m   23.0005u  699.9962m  166.1663m  533.8529m 
 -377.37475m   23.1420u  699.9962m  166.3077m  533.7116m 
 -377.27475m   23.2843u  699.9961m  166.4491m  533.5703m 
 -377.17475m   23.4276u  699.9961m  166.5905m  533.4291m 
 -377.07475m   23.5717u  699.9961m  166.7319m  533.2878m 
 -376.97475m   23.7168u  699.9961m  166.8733m  533.1465m 
 -376.87475m   23.8627u  699.9961m  167.0147m  533.0052m 
 -376.77475m   24.0096u  699.9960m  167.1561m  532.8640m 
 -376.67475m   24.1574u  699.9960m  167.2975m  532.7227m 
 -376.57475m   24.3061u  699.9960m  167.4389m  532.5814m 
 -376.47475m   24.4558u  699.9960m  167.5803m  532.4401m 
 -376.37475m   24.6063u  699.9959m  167.7217m  532.2989m 
 -376.27475m   24.7578u  699.9959m  167.8631m  532.1576m 
 -376.17475m   24.9103u  699.9959m  168.0045m  532.0163m 
 -376.07475m   25.0637u  699.9959m  168.1459m  531.8751m 
 -375.97475m   25.2181u  699.9958m  168.2873m  531.7338m 
 -375.87475m   25.3734u  699.9958m  168.4287m  531.5925m 
 -375.77475m   25.5298u  699.9958m  168.5700m  531.4513m 
 -375.67475m   25.6870u  699.9958m  168.7114m  531.3100m 
 -375.57475m   25.8453u  699.9957m  168.8528m  531.1687m 
 -375.47475m   26.0046u  699.9957m  168.9942m  531.0275m 
 -375.37475m   26.1648u  699.9957m  169.1356m  530.8862m 
 -375.27475m   26.3261u  699.9957m  169.2770m  530.7450m 
 -375.17475m   26.4884u  699.9956m  169.4184m  530.6037m 
 -375.07475m   26.6517u  699.9956m  169.5598m  530.4624m 
 -374.97475m   26.8160u  699.9956m  169.7012m  530.3212m 
 -374.87475m   26.9813u  699.9956m  169.8426m  530.1799m 
 -374.77475m   27.1477u  699.9955m  169.9840m  530.0387m 
 -374.67475m   27.3151u  699.9955m  170.1254m  529.8974m 
 -374.57475m   27.4836u  699.9955m  170.2668m  529.7562m 
 -374.47475m   27.6531u  699.9955m  170.4082m  529.6149m 
 -374.37475m   27.8237u  699.9954m  170.5496m  529.4737m 
 -374.27475m   27.9953u  699.9954m  170.6910m  529.3324m 
 -374.17475m   28.1680u  699.9954m  170.8324m  529.1912m 
 -374.07475m   28.3418u  699.9953m  170.9738m  529.0499m 
 -373.97475m   28.5167u  699.9953m  171.1152m  528.9087m 
 -373.87475m   28.6927u  699.9953m  171.2566m  528.7674m 
 -373.77475m   28.8698u  699.9953m  171.3979m  528.6262m 
 -373.67475m   29.0480u  699.9952m  171.5393m  528.4849m 
 -373.57475m   29.2273u  699.9952m  171.6807m  528.3437m 
 -373.47475m   29.4078u  699.9952m  171.8221m  528.2025m 
 -373.37475m   29.5893u  699.9952m  171.9635m  528.0612m 
 -373.27475m   29.7720u  699.9951m  172.1049m  527.9200m 
 -373.17475m   29.9559u  699.9951m  172.2463m  527.7787m 
 -373.07475m   30.1409u  699.9951m  172.3877m  527.6375m 
 -372.97475m   30.3271u  699.9950m  172.5291m  527.4963m 
 -372.87475m   30.5144u  699.9950m  172.6705m  527.3550m 
 -372.77475m   30.7029u  699.9950m  172.8119m  527.2138m 
 -372.67475m   30.8926u  699.9949m  172.9533m  527.0726m 
 -372.57475m   31.0835u  699.9949m  173.0947m  526.9313m 
 -372.47475m   31.2756u  699.9949m  173.2360m  526.7901m 
 -372.37475m   31.4689u  699.9949m  173.3774m  526.6489m 
 -372.27475m   31.6633u  699.9948m  173.5188m  526.5077m 
 -372.17475m   31.8591u  699.9948m  173.6602m  526.3664m 
 -372.07475m   32.0560u  699.9948m  173.8016m  526.2252m 
 -371.97475m   32.2542u  699.9947m  173.9430m  526.0840m 
 -371.87475m   32.4536u  699.9947m  174.0844m  525.9428m 
 -371.77475m   32.6543u  699.9947m  174.2258m  525.8015m 
 -371.67475m   32.8562u  699.9946m  174.3672m  525.6603m 
 -371.57475m   33.0594u  699.9946m  174.5086m  525.5191m 
 -371.47475m   33.2639u  699.9946m  174.6500m  525.3779m 
 -371.37475m   33.4697u  699.9945m  174.7913m  525.2367m 
 -371.27475m   33.6767u  699.9945m  174.9327m  525.0955m 
 -371.17475m   33.8851u  699.9945m  175.0741m  524.9542m 
 -371.07475m   34.0947u  699.9944m  175.2155m  524.8130m 
 -370.97475m   34.3057u  699.9944m  175.3569m  524.6718m 
 -370.87475m   34.5180u  699.9944m  175.4983m  524.5306m 
 -370.77475m   34.7317u  699.9943m  175.6397m  524.3894m 
 -370.67475m   34.9467u  699.9943m  175.7811m  524.2482m 
 -370.57475m   35.1630u  699.9943m  175.9224m  524.1070m 
 -370.47475m   35.3807u  699.9942m  176.0638m  523.9658m 
 -370.37475m   35.5998u  699.9942m  176.2052m  523.8246m 
 -370.27475m   35.8202u  699.9942m  176.3466m  523.6834m 
 -370.17475m   36.0420u  699.9941m  176.4880m  523.5422m 
 -370.07475m   36.2652u  699.9941m  176.6294m  523.4010m 
 -369.97475m   36.4899u  699.9941m  176.7708m  523.2598m 
 -369.87475m   36.7159u  699.9940m  176.9122m  523.1186m 
 -369.77475m   36.9433u  699.9940m  177.0535m  522.9774m 
 -369.67475m   37.1722u  699.9940m  177.1949m  522.8362m 
 -369.57475m   37.4026u  699.9939m  177.3363m  522.6950m 
 -369.47475m   37.6343u  699.9939m  177.4777m  522.5538m 
 -369.37475m   37.8676u  699.9939m  177.6191m  522.4126m 
 -369.27475m   38.1023u  699.9938m  177.7605m  522.2715m 
 -369.17475m   38.3384u  699.9938m  177.9018m  522.1303m 
 -369.07475m   38.5761u  699.9937m  178.0432m  521.9891m 
 -368.97475m   38.8153u  699.9937m  178.1846m  521.8479m 
 -368.87475m   39.0559u  699.9937m  178.3260m  521.7067m 
 -368.77475m   39.2981u  699.9936m  178.4674m  521.5655m 
 -368.67475m   39.5418u  699.9936m  178.6088m  521.4244m 
 -368.57475m   39.7870u  699.9936m  178.7502m  521.2832m 
 -368.47475m   40.0338u  699.9935m  178.8915m  521.1420m 
 -368.37475m   40.2822u  699.9935m  179.0329m  521.0008m 
 -368.27475m   40.5321u  699.9934m  179.1743m  520.8597m 
 -368.17475m   40.7835u  699.9934m  179.3157m  520.7185m 
 -368.07475m   41.0366u  699.9934m  179.4571m  520.5773m 
 -367.97475m   41.2912u  699.9933m  179.5984m  520.4362m 
 -367.87475m   41.5475u  699.9933m  179.7398m  520.2950m 
 -367.77475m   41.8054u  699.9932m  179.8812m  520.1538m 
 -367.67475m   42.0649u  699.9932m  180.0226m  520.0127m 
 -367.57475m   42.3260u  699.9932m  180.1640m  519.8715m 
 -367.47475m   42.5888u  699.9931m  180.3054m  519.7304m 
 -367.37475m   42.8532u  699.9931m  180.4467m  519.5892m 
 -367.27475m   43.1193u  699.9930m  180.5881m  519.4480m 
 -367.17475m   43.3871u  699.9930m  180.7295m  519.3069m 
 -367.07475m   43.6565u  699.9930m  180.8709m  519.1657m 
 -366.97475m   43.9277u  699.9929m  181.0123m  519.0246m 
 -366.87475m   44.2006u  699.9929m  181.1536m  518.8834m 
 -366.77475m   44.4752u  699.9928m  181.2950m  518.7423m 
 -366.67475m   44.7515u  699.9928m  181.4364m  518.6012m 
 -366.57475m   45.0296u  699.9927m  181.5778m  518.4600m 
 -366.47475m   45.3094u  699.9927m  181.7191m  518.3189m 
 -366.37475m   45.5910u  699.9927m  181.8605m  518.1777m 
 -366.27475m   45.8743u  699.9926m  182.0019m  518.0366m 
 -366.17475m   46.1595u  699.9926m  182.1433m  517.8955m 
 -366.07475m   46.4464u  699.9925m  182.2847m  517.7543m 
 -365.97475m   46.7352u  699.9925m  182.4260m  517.6132m 
 -365.87475m   47.0258u  699.9924m  182.5674m  517.4721m 
 -365.77475m   47.3182u  699.9924m  182.7088m  517.3309m 
 -365.67475m   47.6124u  699.9923m  182.8502m  517.1898m 
 -365.57475m   47.9086u  699.9923m  182.9915m  517.0487m 
 -365.47475m   48.2066u  699.9923m  183.1329m  516.9076m 
 -365.37475m   48.5064u  699.9922m  183.2743m  516.7664m 
 -365.27475m   48.8082u  699.9922m  183.4157m  516.6253m 
 -365.17475m   49.1119u  699.9921m  183.5570m  516.4842m 
 -365.07475m   49.4175u  699.9921m  183.6984m  516.3431m 
 -364.97475m   49.7250u  699.9920m  183.8398m  516.2020m 
 -364.87475m   50.0344u  699.9920m  183.9812m  516.0608m 
 -364.77475m   50.3459u  699.9919m  184.1225m  515.9197m 
 -364.67475m   50.6592u  699.9919m  184.2639m  515.7786m 
 -364.57475m   50.9746u  699.9918m  184.4053m  515.6375m 
 -364.47475m   51.2920u  699.9918m  184.5466m  515.4964m 
 -364.37475m   51.6113u  699.9917m  184.6880m  515.3553m 
 -364.27475m   51.9327u  699.9917m  184.8294m  515.2142m 
 -364.17475m   52.2561u  699.9916m  184.9708m  515.0731m 
 -364.07475m   52.5816u  699.9916m  185.1121m  514.9320m 
 -363.97475m   52.9091u  699.9915m  185.2535m  514.7909m 
 -363.87475m   53.2387u  699.9915m  185.3949m  514.6498m 
 -363.77475m   53.5703u  699.9914m  185.5362m  514.5088m 
 -363.67475m   53.9041u  699.9914m  185.6776m  514.3677m 
 -363.57475m   54.2400u  699.9913m  185.8190m  514.2266m 
 -363.47475m   54.5780u  699.9913m  185.9604m  514.0855m 
 -363.37475m   54.9181u  699.9912m  186.1017m  513.9444m 
 -363.27475m   55.2604u  699.9912m  186.2431m  513.8033m 
 -363.17475m   55.6049u  699.9911m  186.3845m  513.6623m 
 -363.07475m   55.9515u  699.9911m  186.5258m  513.5212m 
 -362.97475m   56.3003u  699.9910m  186.6672m  513.3801m 
 -362.87475m   56.6514u  699.9910m  186.8086m  513.2390m 
 -362.77475m   57.0046u  699.9909m  186.9499m  513.0980m 
 -362.67475m   57.3601u  699.9908m  187.0913m  512.9569m 
 -362.57475m   57.7179u  699.9908m  187.2327m  512.8158m 
 -362.47475m   58.0779u  699.9907m  187.3740m  512.6748m 
 -362.37475m   58.4402u  699.9907m  187.5154m  512.5337m 
 -362.27475m   58.8047u  699.9906m  187.6568m  512.3927m 
 -362.17475m   59.1716u  699.9906m  187.7981m  512.2516m 
 -362.07475m   59.5408u  699.9905m  187.9395m  512.1106m 
 -361.97475m   59.9124u  699.9905m  188.0809m  511.9695m 
 -361.87475m   60.2863u  699.9904m  188.2222m  511.8285m 
 -361.77475m   60.6626u  699.9903m  188.3636m  511.6874m 
 -361.67475m   61.0412u  699.9903m  188.5050m  511.5464m 
 -361.57475m   61.4223u  699.9902m  188.6463m  511.4053m 
 -361.47475m   61.8058u  699.9902m  188.7877m  511.2643m 
 -361.37475m   62.1917u  699.9901m  188.9290m  511.1233m 
 -361.27475m   62.5800u  699.9900m  189.0704m  510.9822m 
 -361.17475m   62.9708u  699.9900m  189.2118m  510.8412m 
 -361.07475m   63.3641u  699.9899m  189.3531m  510.7002m 
 -360.97475m   63.7599u  699.9899m  189.4945m  510.5591m 
 -360.87475m   64.1582u  699.9898m  189.6358m  510.4181m 
 -360.77475m   64.5590u  699.9897m  189.7772m  510.2771m 
 -360.67475m   64.9623u  699.9897m  189.9186m  510.1361m 
 -360.57475m   65.3682u  699.9896m  190.0599m  509.9951m 
 -360.47475m   65.7767u  699.9896m  190.2013m  509.8541m 
 -360.37475m   66.1878u  699.9895m  190.3426m  509.7130m 
 -360.27475m   66.6015u  699.9894m  190.4840m  509.5720m 
 -360.17475m   67.0178u  699.9894m  190.6254m  509.4310m 
 -360.07475m   67.4367u  699.9893m  190.7667m  509.2900m 
[...]
  469.52525m  700.0000m  103.9247n  664.0091m   35.9910m 
  469.62525m  700.0000m  103.3589n  664.1505m   35.8496m 
  469.72525m  700.0000m  102.7963n  664.2919m   35.7082m 
  469.82525m  700.0000m  102.2370n  664.4333m   35.5667m 
  469.92525m  700.0000m  101.6809n  664.5748m   35.4253m 
  470.02525m  700.0000m  101.1281n  664.7162m   35.2839m 
  470.12525m  700.0000m  100.5784n  664.8576m   35.1425m 
  470.22525m  700.0000m  100.0320n  664.9990m   35.0010m 
  470.32525m  700.0000m   99.4887n  665.1405m   34.8596m 
  470.42525m  700.0000m   98.9486n  665.2819m   34.7182m 
  470.52525m  700.0000m   98.4116n  665.4233m   34.5768m 
  470.62525m  700.0000m   97.8777n  665.5647m   34.4354m 
  470.72525m  700.0000m   97.3469n  665.7061m   34.2939m 
  470.82525m  700.0000m   96.8191n  665.8476m   34.1525m 
  470.92525m  700.0000m   96.2945n  665.9890m   34.0111m 
  471.02525m  700.0000m   95.7728n  666.1304m   33.8697m 
  471.12525m  700.0000m   95.2542n  666.2718m   33.7283m 
  471.22525m  700.0000m   94.7386n  666.4132m   33.5868m 
  471.32525m  700.0000m   94.2260n  666.5547m   33.4454m 
  471.42525m  700.0000m   93.7164n  666.6961m   33.3040m 
  471.52525m  700.0000m   93.2097n  666.8375m   33.1626m 
  471.62525m  700.0000m   92.7059n  666.9789m   33.0212m 
  471.72525m  700.0000m   92.2051n  667.1203m   32.8797m 
  471.82525m  700.0000m   91.7072n  667.2618m   32.7383m 
  471.92525m  700.0000m   91.2121n  667.4032m   32.5969m 
  472.02525m  700.0000m   90.7199n  667.5446m   32.4555m 
  472.12525m  700.0000m   90.2306n  667.6860m   32.3140m 
  472.22525m  700.0000m   89.7441n  667.8274m   32.1726m 
  472.32525m  700.0000m   89.2604n  667.9689m   32.0312m 
  472.42525m  700.0000m   88.7796n  668.1103m   31.8898m 
  472.52525m  700.0000m   88.3015n  668.2517m   31.7484m 
  472.62525m  700.0000m   87.8261n  668.3931m   31.6069m 
  472.72525m  700.0000m   87.3536n  668.5346m   31.4655m 
  472.82525m  700.0000m   86.8837n  668.6760m   31.3241m 
  472.92525m  700.0000m   86.4166n  668.8174m   31.1827m 
  473.02525m  700.0000m   85.9522n  668.9588m   31.0413m 
  473.12525m  700.0000m   85.4905n  669.1002m   30.8998m 
  473.22525m  700.0000m   85.0314n  669.2417m   30.7584m 
  473.32525m  700.0000m   84.5750n  669.3831m   30.6170m 
  473.42525m  700.0000m   84.1213n  669.5245m   30.4756m 
  473.52525m  700.0000m   83.6701n  669.6659m   30.3341m 
  473.62525m  700.0000m   83.2216n  669.8073m   30.1927m 
  473.72525m  700.0000m   82.7757n  669.9488m   30.0513m 
  473.82525m  700.0000m   82.3324n  670.0902m   29.9099m 
  473.92525m  700.0000m   81.8916n  670.2316m   29.7685m 
  474.02525m  700.0000m   81.4534n  670.3730m   29.6270m 
  474.12525m  700.0000m   81.0177n  670.5144m   29.4856m 
  474.22525m  700.0000m   80.5845n  670.6559m   29.3442m 
  474.32525m  700.0000m   80.1539n  670.7973m   29.2028m 
  474.42525m  700.0000m   79.7257n  670.9387m   29.0614m 
  474.52525m  700.0000m   79.3000n  671.0801m   28.9199m 
  474.62525m  700.0000m   78.8768n  671.2215m   28.7785m 
  474.72525m  700.0000m   78.4561n  671.3630m   28.6371m 
  474.82525m  700.0000m   78.0377n  671.5044m   28.4957m 
  474.92525m  700.0000m   77.6218n  671.6458m   28.3542m 
  475.02525m  700.0000m   77.2083n  671.7872m   28.2128m 
  475.12525m  700.0000m   76.7972n  671.9287m   28.0714m 
  475.22525m  700.0000m   76.3884n  672.0701m   27.9300m 
  475.32525m  700.0000m   75.9821n  672.2115m   27.7886m 
  475.42525m  700.0000m   75.5780n  672.3529m   27.6471m 
  475.52525m  700.0000m   75.1764n  672.4943m   27.5057m 
  475.62525m  700.0000m   74.7770n  672.6358m   27.3643m 
  475.72525m  700.0000m   74.3799n  672.7772m   27.2229m 
  475.82525m  700.0000m   73.9852n  672.9186m   27.0815m 
  475.92525m  700.0000m   73.5927n  673.0600m   26.9400m 
  476.02525m  700.0000m   73.2025n  673.2014m   26.7986m 
  476.12525m  700.0000m   72.8146n  673.3429m   26.6572m 
  476.22525m  700.0000m   72.4289n  673.4843m   26.5158m 
  476.32525m  700.0000m   72.0454n  673.6257m   26.3744m 
  476.42525m  700.0000m   71.6642n  673.7671m   26.2329m 
  476.52525m  700.0000m   71.2851n  673.9085m   26.0915m 
  476.62525m  700.0000m   70.9083n  674.0500m   25.9501m 
  476.72525m  700.0000m   70.5336n  674.1914m   25.8087m 
  476.82525m  700.0000m   70.1611n  674.3328m   25.6672m 
  476.92525m  700.0000m   69.7907n  674.4742m   25.5258m 
  477.02525m  700.0000m   69.4225n  674.6157m   25.3844m 
  477.12525m  700.0000m   69.0564n  674.7571m   25.2430m 
  477.22525m  700.0000m   68.6925n  674.8985m   25.1016m 
  477.32525m  700.0000m   68.3306n  675.0399m   24.9601m 
  477.42525m  700.0000m   67.9708n  675.1813m   24.8187m 
  477.52525m  700.0000m   67.6131n  675.3228m   24.6773m 
  477.62525m  700.0000m   67.2575n  675.4642m   24.5359m 
  477.72525m  700.0000m   66.9039n  675.6056m   24.3945m 
  477.82525m  700.0000m   66.5524n  675.7470m   24.2530m 
  477.92525m  700.0000m   66.2029n  675.8884m   24.1116m 
  478.02525m  700.0000m   65.8555n  676.0299m   23.9702m 
  478.12525m  700.0000m   65.5100n  676.1713m   23.8288m 
  478.22525m  700.0000m   65.1665n  676.3127m   23.6873m 
  478.32525m  700.0000m   64.8251n  676.4541m   23.5459m 
  478.42525m  700.0000m   64.4855n  676.5955m   23.4045m 
  478.52525m  700.0000m   64.1480n  676.7370m   23.2631m 
  478.62525m  700.0000m   63.8124n  676.8784m   23.1217m 
  478.72525m  700.0000m   63.4788n  677.0198m   22.9802m 
  478.82525m  700.0000m   63.1470n  677.1612m   22.8388m 
  478.92525m  700.0000m   62.8172n  677.3027m   22.6974m 
  479.02525m  700.0000m   62.4893n  677.4441m   22.5560m 
  479.12525m  700.0000m   62.1633n  677.5855m   22.4146m 
  479.22525m  700.0000m   61.8392n  677.7269m   22.2731m 
  479.32525m  700.0000m   61.5169n  677.8683m   22.1317m 
  479.42525m  700.0000m   61.1966n  678.0098m   21.9903m 
  479.52525m  700.0000m   60.8780n  678.1512m   21.8489m 
  479.62525m  700.0000m   60.5613n  678.2926m   21.7074m 
  479.72525m  700.0000m   60.2465n  678.4340m   21.5660m 
  479.82525m  700.0000m   59.9334n  678.5754m   21.4246m 
  479.92525m  700.0000m   59.6222n  678.7169m   21.2832m 
  480.02525m  700.0000m   59.3127n  678.8583m   21.1418m 
  480.12525m  700.0000m   59.0051n  678.9997m   21.0003m 
  480.22525m  700.0000m   58.6992n  679.1411m   20.8589m 
  480.32525m  700.0000m   58.3951n  679.2825m   20.7175m 
  480.42525m  700.0000m   58.0928n  679.4240m   20.5761m 
  480.52525m  700.0000m   57.7922n  679.5654m   20.4347m 
  480.62525m  700.0000m   57.4933n  679.7068m   20.2932m 
  480.72525m  700.0000m   57.1962n  679.8482m   20.1518m 
  480.82525m  700.0000m   56.9007n  679.9897m   20.0104m 
  480.92525m  700.0000m   56.6070n  680.1311m   19.8690m 
  481.02525m  700.0000m   56.3150n  680.2725m   19.7275m 
  481.12525m  700.0000m   56.0247n  680.4139m   19.5861m 
  481.22525m  700.0000m   55.7360n  680.5553m   19.4447m 
  481.32525m  700.0000m   55.4490n  680.6968m   19.3033m 
  481.42525m  700.0000m   55.1637n  680.8382m   19.1619m 
  481.52525m  700.0000m   54.8800n  680.9796m   19.0204m 
  481.62525m  700.0000m   54.5980n  681.1210m   18.8790m 
  481.72525m  700.0000m   54.3175n  681.2624m   18.7376m 
  481.82525m  700.0000m   54.0387n  681.4039m   18.5962m 
  481.92525m  700.0000m   53.7616n  681.5453m   18.4548m 
  482.02525m  700.0000m   53.4860n  681.6867m   18.3133m 
  482.12525m  700.0000m   53.2120n  681.8281m   18.1719m 
  482.22525m  700.0000m   52.9396n  681.9695m   18.0305m 
  482.32525m  700.0000m   52.6687n  682.1110m   17.8891m 
  482.42525m  700.0000m   52.3994n  682.2524m   17.7477m 
  482.52525m  700.0000m   52.1317n  682.3938m   17.6062m 
  482.62525m  700.0000m   51.8656n  682.5352m   17.4648m 
  482.72525m  700.0000m   51.6009n  682.6767m   17.3234m 
  482.82525m  700.0000m   51.3378n  682.8181m   17.1820m 
  482.92525m  700.0000m   51.0762n  682.9595m   17.0405m 
  483.02525m  700.0000m   50.8161n  683.1009m   16.8991m 
  483.12525m  700.0000m   50.5576n  683.2423m   16.7577m 
  483.22525m  700.0000m   50.3005n  683.3838m   16.6163m 
  483.32525m  700.0000m   50.0449n  683.5252m   16.4749m 
  483.42525m  700.0000m   49.7908n  683.6666m   16.3334m 
  483.52525m  700.0000m   49.5381n  683.8080m   16.1920m 
  483.62525m  700.0000m   49.2869n  683.9494m   16.0506m 
  483.72525m  700.0000m   49.0372n  684.0909m   15.9092m 
  483.82525m  700.0000m   48.7888n  684.2323m   15.7678m 
  483.92525m  700.0000m   48.5420n  684.3737m   15.6263m 
  484.02525m  700.0000m   48.2965n  684.5151m   15.4849m 
  484.12525m  700.0000m   48.0525n  684.6565m   15.3435m 
  484.22525m  700.0000m   47.8099n  684.7980m   15.2021m 
  484.32525m  700.0000m   47.5687n  684.9394m   15.0606m 
  484.42525m  700.0000m   47.3288n  685.0808m   14.9192m 
  484.52525m  700.0000m   47.0904n  685.2222m   14.7778m 
  484.62525m  700.0000m   46.8533n  685.3637m   14.6364m 
  484.72525m  700.0000m   46.6176n  685.5051m   14.4950m 
  484.82525m  700.0000m   46.3833n  685.6465m   14.3535m 
  484.92525m  700.0000m   46.1503n  685.7879m   14.2121m 
  485.02525m  700.0000m   45.9186n  685.9293m   14.0707m 
  485.12525m  700.0000m   45.6883n  686.0708m   13.9293m 
  485.22525m  700.0000m   45.4594n  686.2122m   13.7879m 
  485.32525m  700.0000m   45.2317n  686.3536m   13.6464m 
  485.42525m  700.0000m   45.0054n  686.4950m   13.5050m 
  485.52525m  700.0000m   44.7803n  686.6364m   13.3636m 
  485.62525m  700.0000m   44.5566n  686.7779m   13.2222m 
  485.72525m  700.0000m   44.3342n  686.9193m   13.0807m 
  485.82525m  700.0000m   44.1130n  687.0607m   12.9393m 
  485.92525m  700.0000m   43.8931n  687.2021m   12.7979m 
  486.02525m  700.0000m   43.6745n  687.3435m   12.6565m 
  486.12525m  700.0000m   43.4572n  687.4850m   12.5151m 
  486.22525m  700.0000m   43.2411n  687.6264m   12.3736m 
  486.32525m  700.0000m   43.0262n  687.7678m   12.2322m 
  486.42525m  700.0000m   42.8126n  687.9092m   12.0908m 
  486.52525m  700.0000m   42.6002n  688.0507m   11.9494m 
  486.62525m  700.0000m   42.3891n  688.1921m   11.8080m 
  486.72525m  700.0000m   42.1791n  688.3335m   11.6665m 
  486.82525m  700.0000m   41.9704n  688.4749m   11.5251m 
  486.92525m  700.0000m   41.7629n  688.6163m   11.3837m 
  487.02525m  700.0000m   41.5566n  688.7578m   11.2423m 
  487.12525m  700.0000m   41.3515n  688.8992m   11.1008m 
  487.22525m  700.0000m   41.1475n  689.0406m   10.9594m 
  487.32525m  700.0000m   40.9447n  689.1820m   10.8180m 
  487.42525m  700.0000m   40.7431n  689.3234m   10.6766m 
  487.52525m  700.0000m   40.5427n  689.4649m   10.5352m 
  487.62525m  700.0000m   40.3434n  689.6063m   10.3937m 
  487.72525m  700.0000m   40.1453n  689.7477m   10.2523m 
  487.82525m  700.0000m   39.9483n  689.8891m   10.1109m 
  487.92525m  700.0000m   39.7525n  690.0306m    9.9695m 
  488.02525m  700.0000m   39.5578n  690.1720m    9.8281m 
  488.12525m  700.0000m   39.3642n  690.3134m    9.6866m 
  488.22525m  700.0000m   39.1717n  690.4548m    9.5452m 
  488.32525m  700.0000m   38.9803n  690.5962m    9.4038m 
  488.42525m  700.0000m   38.7901n  690.7377m    9.2624m 
  488.52525m  700.0000m   38.6009n  690.8791m    9.1210m 
  488.62525m  700.0000m   38.4128n  691.0205m    8.9795m 
  488.72525m  700.0000m   38.2258n  691.1619m    8.8381m 
  488.82525m  700.0000m   38.0399n  691.3033m    8.6967m 
  488.92525m  700.0000m   37.8551n  691.4448m    8.5553m 
  489.02525m  700.0000m   37.6713n  691.5862m    8.4138m 
  489.12525m  700.0000m   37.4886n  691.7276m    8.2724m 
  489.22525m  700.0000m   37.3070n  691.8690m    8.1310m 
  489.32525m  700.0000m   37.1264n  692.0104m    7.9896m 
  489.42525m  700.0000m   36.9468n  692.1519m    7.8482m 
  489.52525m  700.0000m   36.7683n  692.2933m    7.7067m 
  489.62525m  700.0000m   36.5908n  692.4347m    7.5653m 
  489.72525m  700.0000m   36.4143n  692.5761m    7.4239m 
  489.82525m  700.0000m   36.2388n  692.7176m    7.2825m 
  489.92525m  700.0000m   36.0644n  692.8590m    7.1411m 
  490.02525m  700.0000m   35.8910n  693.0004m    6.9996m 
  490.12525m  700.0000m   35.7185n  693.1418m    6.8582m 
  490.22525m  700.0000m   35.5471n  693.2832m    6.7168m 
  490.32525m  700.0000m   35.3766n  693.4247m    6.5754m 
  490.42525m  700.0000m   35.2072n  693.5661m    6.4339m 
  490.52525m  700.0000m   35.0387n  693.7075m    6.2925m 
  490.62525m  700.0000m   34.8712n  693.8489m    6.1511m 
  490.72525m  700.0000m   34.7046n  693.9903m    6.0097m 
  490.82525m  700.0000m   34.5390n  694.1318m    5.8683m 
  490.92525m  700.0000m   34.3744n  694.2732m    5.7268m 
  491.02525m  700.0000m   34.2107n  694.4146m    5.5854m 
  491.12525m  700.0000m   34.0480n  694.5560m    5.4440m 
  491.22525m  700.0000m   33.8862n  694.6974m    5.3026m 
  491.32525m  700.0000m   33.7253n  694.8389m    5.1612m 
  491.42525m  700.0000m   33.5654n  694.9803m    5.0197m 
  491.52525m  700.0000m   33.4063n  695.1217m    4.8783m 
  491.62525m  700.0000m   33.2482n  695.2631m    4.7369m 
  491.72525m  700.0000m   33.0911n  695.4046m    4.5955m 
  491.82525m  700.0000m   32.9348n  695.5460m    4.4540m 
  491.92525m  700.0000m   32.7794n  695.6874m    4.3126m 
  492.02525m  700.0000m   32.6249n  695.8288m    4.1712m 
  492.12525m  700.0000m   32.4713n  695.9702m    4.0298m 
  492.22525m  700.0000m   32.3186n  696.1117m    3.8884m 
  492.32525m  700.0000m   32.1668n  696.2531m    3.7469m 
  492.42525m  700.0000m   32.0159n  696.3945m    3.6055m 
  492.52525m  700.0000m   31.8658n  696.5359m    3.4641m 
  492.62525m  700.0000m   31.7166n  696.6773m    3.3227m 
  492.72525m  700.0000m   31.5683n  696.8188m    3.1813m 
  492.82525m  700.0000m   31.4208n  696.9602m    3.0398m 
  492.92525m  700.0000m   31.2741n  697.1016m    2.8984m 
  493.02525m  700.0000m   31.1283n  697.2430m    2.7570m 
  493.12525m  700.0000m   30.9834n  697.3845m    2.6156m 
  493.22525m  700.0000m   30.8393n  697.5259m    2.4741m 
  493.32525m  700.0000m   30.6960n  697.6673m    2.3327m 
  493.42525m  700.0000m   30.5535n  697.8087m    2.1913m 
  493.52525m  700.0000m   30.4119n  697.9501m    2.0499m 
  493.62525m  700.0000m   30.2711n  698.0916m    1.9085m 
  493.72525m  700.0000m   30.1311n  698.2330m    1.7670m 
  493.82525m  700.0000m   29.9919n  698.3744m    1.6256m 
  493.92525m  700.0000m   29.8535n  698.5158m    1.4842m 
  494.02525m  700.0000m   29.7159n  698.6572m    1.3428m 
  494.12525m  700.0000m   29.5791n  698.7987m    1.2014m 
  494.22525m  700.0000m   29.4431n  698.9401m    1.0599m 
  494.32525m  700.0000m   29.3079n  699.0815m  918.5147u 
  494.42525m  700.0000m   29.1734n  699.2229m  777.0933u 
  494.52525m  700.0000m   29.0398n  699.3643m  635.6720u 
  494.62525m  700.0000m   28.9069n  699.5058m  494.2507u 
  494.72525m  700.0000m   28.7747n  699.6472m  352.8293u 
  494.82525m  700.0000m   28.6434n  699.7886m  211.4080u 
  494.92525m  700.0000m   28.5128n  699.9300m   69.9867u 
y
 max_1= 431.4584m    at=-252.6747m
             from=-494.9747m    to= 494.9253m
 max_2= 431.4585m    at= 252.7253m
             from=-494.9747m    to= 494.9253m
 snm= 305.0872m
1****** HSPICE -- Q-2020.03-SP2-2 linux64 (Nov  1 2020) ******                  
 ******  
 .title noise margin in hold operation

 ****** operating point information tnom=  25.000 temp=  25.000 ******
 ****** operating point status is all       simulation time is     0.     
    node    =voltage      node    =voltage      node    =voltage

 +0:bl      = 700.0000m 0:blb     = 700.0000m 0:gl      = 372.7456m
 +0:gr      = 372.7456m 0:q       = 372.7456m 0:qb      = 372.7456m
 +0:u       =   0.      0:v1      = 527.1419m 0:v2      = 527.1419m
 +0:vdd     = 700.0000m 0:wl      =   0.      0:x       = 654.2050m


 **** voltage sources

 subckt                                   
 element  0:vu       0:vvdd     0:vwl     
  volts      0.       700.0000m    0.     
  current    0.      -702.7720n  286.5362f
  power      0.       491.9404n    0.     

     total voltage source power dissipation=  491.9404n       watts



 **** voltage-controlled voltage sources


 subckt                                              
 element  0:eli      0:ev1      0:eri      0:ev2     
  volts    372.7456m  527.1419m  372.7456m  527.1419m
  current   16.1339f    0.        16.1339f    0.     





 **** mosfets


 subckt                                                                    
 element  0:mpr      0:mnr      0:mpl      0:mnl      0:mnpr     0:mnpl    
 model    0:pmos_sra 0:nmos_sra 0:pmos_sra 0:nmos_sra 0:nmos_sra 0:nmos_sra
 region   Subth      Subth      Subth      Subth      Cutoff     Cutoff    
  id      -351.3860n  351.3859n -351.3860n  351.3859n  968.8005a  968.8005a
  ibs        0.         0.         0.         0.         0.         0.     
  ibd        0.         0.         0.         0.         0.         0.     
  vgs     -327.2544m  372.7456m -327.2544m  372.7456m -372.7456m -372.7456m
  vds     -327.2544m  372.7456m -327.2544m  372.7456m  327.2544m  327.2544m
  vbs      -45.7950m  654.2050m  -45.7950m  654.2050m  281.4593m  281.4593m
  vth     -329.8495m  410.5378m -329.8495m  410.5378m  410.7443m  410.7443m
  vdsat    -96.3257m   79.3757m  -96.3257m   79.3757m   71.0890m   71.0890m
  vod        2.5952m  -37.7921m    2.5952m  -37.7921m -783.4900m -783.4900m
  beta       1.1164m    1.4833m    1.1164m    1.4833m    1.4833m    1.4833m
  gam eff    0.         0.         0.         0.         0.         0.     
  gm         9.3305u   11.0456u    9.3305u   11.0456u  7.486e-21  7.486e-21
  gds      188.7253n  159.0855n  188.7253n  159.0855n  239.3208a  239.3208a
  gmb        3.4468p    8.4526p    3.4468p    8.4526p  1.350e-20  1.350e-20
  cdtot      9.5404a    9.5698a    9.5404a    9.5698a    9.5700a    9.5700a
  cgtot     28.1205a   23.7784a   28.1205a   23.7784a   19.1400a   19.1400a
  cstot     15.4142a   12.7001a   15.4142a   12.7001a    9.5700a    9.5700a
  cbtot      0.         0.         0.         0.         0.         0.     
  cgs       18.6544a   14.2220a   18.6544a   14.2220a    9.5700a    9.5700a
  cgd        9.4661a    9.5565a    9.4661a    9.5565a    9.5700a    9.5700a




          ***** job concluded
 ******  
 .title noise margin in hold operation

 ****** job statistics summary tnom=  25.000 temp=  25.000 ******
  
 ******  Machine Information  ******
 CPU:
 model name	: AMD EPYC 7713 64-Core Processor
 cpu MHz	: 2000.000
  
 OS:
 Linux version 3.10.0-1160.88.1.el7.x86_64 (mockbuild@kbuilder.bsys.centos.org) (gcc version 4.8.5 20150623 (Red Hat 4.8.5-44) (GCC) ) #1 SMP Tue Mar 7 15:41:52 UTC 2023


  ******  HSPICE Threads Information  ******

  Command Line Threads Count :     1
  Available CPU Count        :   256
  Actual Threads Count       :     1


  ******  Circuit Statistics  ******
  # nodes       =      13 # elements   =      15
  # resistors   =       0 # capacitors =       2 # inductors   =       0
  # mutual_inds =       0 # vccs       =       0 # vcvs        =       4
  # cccs        =       0 # ccvs       =       0 # volt_srcs   =       3
  # curr_srcs   =       0 # diodes     =       0 # bjts        =       0
  # jfets       =       0 # mosfets    =       6 # U elements  =       0
  # T elements  =       0 # W elements =       0 # B elements  =       0
  # S elements  =       0 # P elements =       0 # va device   =       0
  # vector_srcs =       0 # N elements =       0


  ******  Runtime Statistics (seconds)  ******

  analysis           time    # points   tot. iter  conv.iter
  op point           0.01           1           9
  dc sweep           0.80        9900       29711
  readin             0.02
  errchk             0.01
  setup              0.00
  output             0.00


           peak memory used        406.02 megabytes
           total cpu time            0.90 seconds
           total elapsed time        1.06 seconds
           job started at     13:18:09 03/23/2025
           job ended   at     13:18:10 03/23/2025
           job total runtime         1.06 seconds


 lic: Release hspice token(s) 
 lic: total license checkout elapse time:        0.16(s)
