 ****** HSPICE -- Q-2020.03-SP2-2 linux64 (Nov  1 2020) ******                  
  Copyright (c) 1986 - 2025 by Synopsys, Inc. All Rights Reserved.              
  This software and the associated documentation are proprietary
  to Synopsys, Inc. This software may only be used in accordance
  with the terms and conditions of a written license agreement with
  Synopsys, Inc. All other use, reproduction, or distribution of
  this software is strictly prohibited.
  Input File: SRAM_SNM_TT.sp                                                    
  Command line options: /RAID2/cad/synopsys/hspice/2020.03-sp2-2/hspice/linux64/hspice -i SRAM_SNM_TT.sp -o SRAM_SNM_TT.lis
  Start time: Wed Mar 19 22:16:27 2025
 lic:  
 lic: FLEXlm: SDK_12.6 
 lic: USER:   es25MCS042           HOSTNAME: ee28 
 lic: HOSTID: "d85ed3efc19a"       PID:      89288 
 lic: Using FLEXlm license file: 
 lic: 26585@lshc 
 lic: Checkout 1 hspice 
 lic: License/Maintenance for hspice will expire on 14-may-2025/2024.09 
 lic: 227(in_use)/1100(total) FLOATING license(s) on SERVER 26585@lshc 
 lic:   
  
      
             
 Warning:'Floating bulk' occurs 1 times
 Summary of floating bulk:
 -----------------------
 |Node      |Device    |
 |----------+----------|
 |x         |mpr       |
 -----------------------
              
 *****************************************************************
 ******  option summary
 ******
 runlvl  = 3         bypass  = 2.0000    
 ******
 .title noise margin in hold operation

 ****** dc transfer curves tnom=  25.000 temp=  25.000 ******
x

 volt         voltage    voltage    voltage    voltage   
             q          qb         gr         gl         
 -494.97475m   31.6225n  700.0000m  700.0000m   -8.9308n 
 -494.87475m   31.7657n  700.0000m  699.8586m  141.4124u 
 -494.77475m   31.9096n  700.0000m  699.7172m  282.8337u 
 -494.67475m   32.0544n  700.0000m  699.5758m  424.2550u 
 -494.57475m   32.2000n  700.0000m  699.4343m  565.6764u 
 -494.47475m   32.3465n  700.0000m  699.2929m  707.0977u 
 -494.37475m   32.4938n  700.0000m  699.1515m  848.5190u 
 -494.27475m   32.6420n  700.0000m  699.0101m  989.9403u 
 -494.17475m   32.7910n  700.0000m  698.8687m    1.1314m 
 -494.07475m   32.9409n  700.0000m  698.7272m    1.2728m 
 -493.97475m   33.0916n  700.0000m  698.5858m    1.4142m 
 -493.87475m   33.2432n  700.0000m  698.4444m    1.5556m 
 -493.77475m   33.3957n  700.0000m  698.3030m    1.6970m 
 -493.67475m   33.5490n  700.0000m  698.1616m    1.8385m 
 -493.57475m   33.7033n  700.0000m  698.0201m    1.9799m 
 -493.47475m   33.8584n  700.0000m  697.8787m    2.1213m 
 -493.37475m   34.0144n  700.0000m  697.7373m    2.2627m 
 -493.27475m   34.1713n  700.0000m  697.5959m    2.4042m 
 -493.17475m   34.3291n  700.0000m  697.4544m    2.5456m 
 -493.07475m   34.4879n  700.0000m  697.3130m    2.6870m 
 -492.97475m   34.6475n  700.0000m  697.1716m    2.8284m 
 -492.87475m   34.8081n  700.0000m  697.0302m    2.9698m 
 -492.77475m   34.9695n  700.0000m  696.8888m    3.1113m 
 -492.67475m   35.1320n  700.0000m  696.7473m    3.2527m 
 -492.57475m   35.2953n  700.0000m  696.6059m    3.3941m 
 -492.47475m   35.4596n  700.0000m  696.4645m    3.5355m 
 -492.37475m   35.6249n  700.0000m  696.3231m    3.6769m 
 -492.27475m   35.7910n  700.0000m  696.1817m    3.8184m 
 -492.17475m   35.9582n  700.0000m  696.0402m    3.9598m 
 -492.07475m   36.1263n  700.0000m  695.8988m    4.1012m 
 -491.97475m   36.2954n  700.0000m  695.7574m    4.2426m 
 -491.87475m   36.4654n  700.0000m  695.6160m    4.3841m 
 -491.77475m   36.6365n  700.0000m  695.4746m    4.5255m 
 -491.67475m   36.8085n  700.0000m  695.3331m    4.6669m 
 -491.57475m   36.9815n  700.0000m  695.1917m    4.8083m 
 -491.47475m   37.1555n  700.0000m  695.0503m    4.9497m 
 -491.37475m   37.3305n  700.0000m  694.9089m    5.0912m 
 -491.27475m   37.5065n  700.0000m  694.7674m    5.2326m 
 -491.17475m   37.6836n  700.0000m  694.6260m    5.3740m 
 -491.07475m   37.8616n  700.0000m  694.4846m    5.5154m 
 -490.97475m   38.0407n  700.0000m  694.3432m    5.6568m 
 -490.87475m   38.2208n  700.0000m  694.2018m    5.7983m 
 -490.77475m   38.4019n  700.0000m  694.0603m    5.9397m 
 -490.67475m   38.5841n  700.0000m  693.9189m    6.0811m 
 -490.57475m   38.7674n  700.0000m  693.7775m    6.2225m 
 -490.47475m   38.9517n  700.0000m  693.6361m    6.3640m 
 -490.37475m   39.1370n  700.0000m  693.4947m    6.5054m 
 -490.27475m   39.3234n  700.0000m  693.3532m    6.6468m 
 -490.17475m   39.5109n  700.0000m  693.2118m    6.7882m 
 -490.07475m   39.6995n  700.0000m  693.0704m    6.9296m 
 -489.97475m   39.8892n  700.0000m  692.9290m    7.0711m 
 -489.87475m   40.0799n  700.0000m  692.7876m    7.2125m 
 -489.77475m   40.2718n  700.0000m  692.6461m    7.3539m 
 -489.67475m   40.4647n  700.0000m  692.5047m    7.4953m 
 -489.57475m   40.6588n  700.0000m  692.3633m    7.6367m 
 -489.47475m   40.8540n  700.0000m  692.2219m    7.7782m 
 -489.37475m   41.0503n  700.0000m  692.0804m    7.9196m 
 -489.27475m   41.2478n  700.0000m  691.9390m    8.0610m 
 -489.17475m   41.4463n  700.0000m  691.7976m    8.2024m 
 -489.07475m   41.6461n  700.0000m  691.6562m    8.3438m 
 -488.97475m   41.8469n  700.0000m  691.5148m    8.4853m 
 -488.87475m   42.0490n  700.0000m  691.3733m    8.6267m 
 -488.77475m   42.2522n  700.0000m  691.2319m    8.7681m 
 -488.67475m   42.4565n  700.0000m  691.0905m    8.9095m 
 -488.57475m   42.6621n  700.0000m  690.9491m    9.0510m 
 -488.47475m   42.8688n  700.0000m  690.8077m    9.1924m 
 -488.37475m   43.0767n  700.0000m  690.6662m    9.3338m 
 -488.27475m   43.2859n  700.0000m  690.5248m    9.4752m 
 -488.17475m   43.4962n  700.0000m  690.3834m    9.6166m 
 -488.07475m   43.7077n  700.0000m  690.2420m    9.7581m 
 -487.97475m   43.9205n  700.0000m  690.1005m    9.8995m 
 -487.87475m   44.1345n  700.0000m  689.9591m   10.0409m 
 -487.77475m   44.3497n  700.0000m  689.8177m   10.1823m 
 -487.67475m   44.5661n  700.0000m  689.6763m   10.3237m 
 -487.57475m   44.7838n  700.0000m  689.5349m   10.4652m 
 -487.47475m   45.0028n  700.0000m  689.3934m   10.6066m 
 -487.37475m   45.2230n  700.0000m  689.2520m   10.7480m 
 -487.27475m   45.4445n  700.0000m  689.1106m   10.8894m 
 -487.17475m   45.6673n  700.0000m  688.9692m   11.0309m 
 -487.07475m   45.8913n  700.0000m  688.8278m   11.1723m 
 -486.97475m   46.1167n  700.0000m  688.6863m   11.3137m 
 -486.87475m   46.3433n  700.0000m  688.5449m   11.4551m 
 -486.77475m   46.5713n  700.0000m  688.4035m   11.5965m 
 -486.67475m   46.8005n  700.0000m  688.2621m   11.7380m 
 -486.57475m   47.0311n  700.0000m  688.1207m   11.8794m 
 -486.47475m   47.2630n  700.0000m  687.9792m   12.0208m 
 -486.37475m   47.4963n  700.0000m  687.8378m   12.1622m 
 -486.27475m   47.7308n  700.0000m  687.6964m   12.3036m 
 -486.17475m   47.9668n  700.0000m  687.5550m   12.4451m 
 -486.07475m   48.2041n  700.0000m  687.4135m   12.5865m 
 -485.97475m   48.4428n  700.0000m  687.2721m   12.7279m 
 -485.87475m   48.6828n  700.0000m  687.1307m   12.8693m 
 -485.77475m   48.9242n  700.0000m  686.9893m   13.0108m 
 -485.67475m   49.1671n  700.0000m  686.8479m   13.1522m 
 -485.57475m   49.4113n  700.0000m  686.7064m   13.2936m 
 -485.47475m   49.6569n  700.0000m  686.5650m   13.4350m 
 -485.37475m   49.9040n  700.0000m  686.4236m   13.5764m 
 -485.27475m   50.1524n  700.0000m  686.2822m   13.7179m 
 -485.17475m   50.4024n  700.0000m  686.1408m   13.8593m 
 -485.07475m   50.6537n  700.0000m  685.9993m   14.0007m 
 -484.97475m   50.9065n  700.0000m  685.8579m   14.1421m 
 -484.87475m   51.1607n  700.0000m  685.7165m   14.2835m 
 -484.77475m   51.4165n  700.0000m  685.5751m   14.4250m 
 -484.67475m   51.6737n  700.0000m  685.4337m   14.5664m 
 -484.57475m   51.9323n  700.0000m  685.2922m   14.7078m 
 -484.47475m   52.1925n  700.0000m  685.1508m   14.8492m 
 -484.37475m   52.4542n  700.0000m  685.0094m   14.9906m 
 -484.27475m   52.7173n  700.0000m  684.8680m   15.1321m 
 -484.17475m   52.9820n  700.0000m  684.7265m   15.2735m 
 -484.07475m   53.2483n  700.0000m  684.5851m   15.4149m 
 -483.97475m   53.5160n  700.0000m  684.4437m   15.5563m 
 -483.87475m   53.7853n  700.0000m  684.3023m   15.6978m 
 -483.77475m   54.0562n  700.0000m  684.1609m   15.8392m 
 -483.67475m   54.3286n  700.0000m  684.0194m   15.9806m 
 -483.57475m   54.6026n  700.0000m  683.8780m   16.1220m 
 -483.47475m   54.8781n  700.0000m  683.7366m   16.2634m 
 -483.37475m   55.1553n  700.0000m  683.5952m   16.4049m 
 -483.27475m   55.4340n  700.0000m  683.4538m   16.5463m 
 -483.17475m   55.7144n  700.0000m  683.3123m   16.6877m 
 -483.07475m   55.9964n  700.0000m  683.1709m   16.8291m 
 -482.97475m   56.2800n  700.0000m  683.0295m   16.9705m 
 -482.87475m   56.5652n  700.0000m  682.8881m   17.1120m 
 -482.77475m   56.8521n  700.0000m  682.7467m   17.2534m 
 -482.67475m   57.1407n  700.0000m  682.6052m   17.3948m 
 -482.57475m   57.4309n  700.0000m  682.4638m   17.5362m 
 -482.47475m   57.7228n  700.0000m  682.3224m   17.6777m 
 -482.37475m   58.0163n  700.0000m  682.1810m   17.8191m 
 -482.27475m   58.3116n  700.0000m  682.0395m   17.9605m 
 -482.17475m   58.6086n  700.0000m  681.8981m   18.1019m 
 -482.07475m   58.9072n  700.0000m  681.7567m   18.2433m 
 -481.97475m   59.2076n  700.0000m  681.6153m   18.3848m 
 -481.87475m   59.5098n  700.0000m  681.4739m   18.5262m 
 -481.77475m   59.8136n  700.0000m  681.3324m   18.6676m 
 -481.67475m   60.1193n  700.0000m  681.1910m   18.8090m 
 -481.57475m   60.4267n  700.0000m  681.0496m   18.9504m 
 -481.47475m   60.7358n  700.0000m  680.9082m   19.0919m 
 -481.37475m   61.0468n  700.0000m  680.7668m   19.2333m 
 -481.27475m   61.3595n  700.0000m  680.6253m   19.3747m 
 -481.17475m   61.6741n  700.0000m  680.4839m   19.5161m 
 -481.07475m   61.9905n  700.0000m  680.3425m   19.6576m 
 -480.97475m   62.3086n  700.0000m  680.2011m   19.7990m 
 -480.87475m   62.6287n  700.0000m  680.0597m   19.9404m 
 -480.77475m   62.9506n  700.0000m  679.9182m   20.0818m 
 -480.67475m   63.2743n  700.0000m  679.7768m   20.2232m 
 -480.57475m   63.5999n  700.0000m  679.6354m   20.3647m 
 -480.47475m   63.9274n  700.0000m  679.4940m   20.5061m 
 -480.37475m   64.2568n  700.0000m  679.3525m   20.6475m 
 -480.27475m   64.5880n  700.0000m  679.2111m   20.7889m 
 -480.17475m   64.9212n  700.0000m  679.0697m   20.9303m 
 -480.07475m   65.2563n  700.0000m  678.9283m   21.0718m 
 -479.97475m   65.5934n  700.0000m  678.7869m   21.2132m 
 -479.87475m   65.9324n  700.0000m  678.6454m   21.3546m 
 -479.77475m   66.2733n  700.0000m  678.5040m   21.4960m 
 -479.67475m   66.6162n  700.0000m  678.3626m   21.6375m 
 -479.57475m   66.9611n  700.0000m  678.2212m   21.7789m 
 -479.47475m   67.3080n  700.0000m  678.0798m   21.9203m 
 -479.37475m   67.6569n  700.0000m  677.9383m   22.0617m 
 -479.27475m   68.0078n  700.0000m  677.7969m   22.2031m 
 -479.17475m   68.3607n  700.0000m  677.6555m   22.3446m 
 -479.07475m   68.7157n  700.0000m  677.5141m   22.4860m 
 -478.97475m   69.0727n  700.0000m  677.3727m   22.6274m 
 -478.87475m   69.4318n  700.0000m  677.2312m   22.7688m 
 -478.77475m   69.7930n  700.0000m  677.0898m   22.9102m 
 -478.67475m   70.1562n  700.0000m  676.9484m   23.0517m 
 -478.57475m   70.5216n  700.0000m  676.8070m   23.1931m 
 -478.47475m   70.8890n  700.0000m  676.6655m   23.3345m 
 -478.37475m   71.2586n  700.0000m  676.5241m   23.4759m 
 -478.27475m   71.6303n  700.0000m  676.3827m   23.6173m 
 -478.17475m   72.0041n  700.0000m  676.2413m   23.7588m 
 -478.07475m   72.3802n  700.0000m  676.0999m   23.9002m 
 -477.97475m   72.7584n  700.0000m  675.9584m   24.0416m 
 -477.87475m   73.1387n  700.0000m  675.8170m   24.1830m 
 -477.77475m   73.5213n  700.0000m  675.6756m   24.3245m 
 -477.67475m   73.9061n  700.0000m  675.5342m   24.4659m 
 -477.57475m   74.2931n  700.0000m  675.3928m   24.6073m 
 -477.47475m   74.6823n  700.0000m  675.2513m   24.7487m 
 -477.37475m   75.0738n  700.0000m  675.1099m   24.8901m 
 -477.27475m   75.4676n  700.0000m  674.9685m   25.0316m 
 -477.17475m   75.8636n  700.0000m  674.8271m   25.1730m 
 -477.07475m   76.2619n  700.0000m  674.6857m   25.3144m 
 -476.97475m   76.6625n  700.0000m  674.5442m   25.4558m 
 -476.87475m   77.0654n  700.0000m  674.4028m   25.5972m 
 -476.77475m   77.4707n  700.0000m  674.2614m   25.7387m 
 -476.67475m   77.8783n  700.0000m  674.1200m   25.8801m 
 -476.57475m   78.2883n  700.0000m  673.9785m   26.0215m 
 -476.47475m   78.7006n  700.0000m  673.8371m   26.1629m 
 -476.37475m   79.1153n  700.0000m  673.6957m   26.3044m 
 -476.27475m   79.5324n  700.0000m  673.5543m   26.4458m 
 -476.17475m   79.9519n  700.0000m  673.4129m   26.5872m 
 -476.07475m   80.3739n  700.0000m  673.2714m   26.7286m 
 -475.97475m   80.7982n  700.0000m  673.1300m   26.8700m 
 -475.87475m   81.2251n  700.0000m  672.9886m   27.0115m 
 -475.77475m   81.6544n  700.0000m  672.8472m   27.1529m 
 -475.67475m   82.0862n  700.0000m  672.7058m   27.2943m 
 -475.57475m   82.5204n  700.0000m  672.5643m   27.4357m 
 -475.47475m   82.9572n  700.0000m  672.4229m   27.5771m 
 -475.37475m   83.3966n  700.0000m  672.2815m   27.7186m 
 -475.27475m   83.8384n  700.0000m  672.1401m   27.8600m 
 -475.17475m   84.2828n  700.0000m  671.9987m   28.0014m 
 -475.07475m   84.7298n  700.0000m  671.8572m   28.1428m 
 -474.97475m   85.1794n  700.0000m  671.7158m   28.2842m 
 -474.87475m   85.6315n  700.0000m  671.5744m   28.4257m 
 -474.77475m   86.0863n  700.0000m  671.4330m   28.5671m 
 -474.67475m   86.5437n  700.0000m  671.2916m   28.7085m 
 -474.57475m   87.0038n  700.0000m  671.1501m   28.8499m 
 -474.47475m   87.4665n  700.0000m  671.0087m   28.9914m 
 -474.37475m   87.9319n  700.0000m  670.8673m   29.1328m 
 -474.27475m   88.4000n  700.0000m  670.7259m   29.2742m 
 -474.17475m   88.8708n  700.0000m  670.5844m   29.4156m 
 -474.07475m   89.3443n  700.0000m  670.4430m   29.5570m 
 -473.97475m   89.8206n  700.0000m  670.3016m   29.6985m 
 -473.87475m   90.2996n  700.0000m  670.1602m   29.8399m 
 -473.77475m   90.7814n  700.0000m  670.0188m   29.9813m 
 -473.67475m   91.2659n  700.0000m  669.8773m   30.1227m 
 -473.57475m   91.7533n  700.0000m  669.7359m   30.2641m 
 -473.47475m   92.2435n  700.0000m  669.5945m   30.4056m 
 -473.37475m   92.7365n  700.0000m  669.4531m   30.5470m 
 -473.27475m   93.2324n  700.0000m  669.3117m   30.6884m 
 -473.17475m   93.7312n  700.0000m  669.1702m   30.8298m 
 -473.07475m   94.2328n  700.0000m  669.0288m   30.9713m 
 -472.97475m   94.7374n  700.0000m  668.8874m   31.1127m 
 -472.87475m   95.2448n  700.0000m  668.7460m   31.2541m 
 -472.77475m   95.7552n  700.0000m  668.6046m   31.3955m 
 -472.67475m   96.2686n  700.0000m  668.4631m   31.5369m 
 -472.57475m   96.7849n  700.0000m  668.3217m   31.6784m 
 -472.47475m   97.3042n  700.0000m  668.1803m   31.8198m 
 -472.37475m   97.8265n  700.0000m  668.0389m   31.9612m 
 -472.27475m   98.3519n  700.0000m  667.8975m   32.1026m 
 -472.17475m   98.8803n  700.0000m  667.7560m   32.2440m 
 -472.07475m   99.4117n  700.0000m  667.6146m   32.3855m 
 -471.97475m   99.9462n  700.0000m  667.4732m   32.5269m 
 -471.87475m  100.4839n  700.0000m  667.3318m   32.6683m 
 -471.77475m  101.0246n  700.0000m  667.1903m   32.8097m 
 -471.67475m  101.5684n  700.0000m  667.0489m   32.9512m 
 -471.57475m  102.1155n  700.0000m  666.9075m   33.0926m 
 -471.47475m  102.6656n  700.0000m  666.7661m   33.2340m 
 -471.37475m  103.2190n  700.0000m  666.6247m   33.3754m 
 -471.27475m  103.7756n  700.0000m  666.4832m   33.5168m 
 -471.17475m  104.3353n  700.0000m  666.3418m   33.6583m 
 -471.07475m  104.8984n  700.0000m  666.2004m   33.7997m 
 -470.97475m  105.4647n  700.0000m  666.0590m   33.9411m 
 -470.87475m  106.0342n  700.0000m  665.9176m   34.0825m 
 -470.77475m  106.6071n  700.0000m  665.7761m   34.2239m 
 -470.67475m  107.1833n  700.0000m  665.6347m   34.3654m 
 -470.57475m  107.7628n  700.0000m  665.4933m   34.5068m 
 -470.47475m  108.3457n  700.0000m  665.3519m   34.6482m 
 -470.37475m  108.9320n  700.0000m  665.2105m   34.7896m 
 -470.27475m  109.5216n  700.0000m  665.0690m   34.9310m 
 -470.17475m  110.1147n  700.0000m  664.9276m   35.0725m 
 -470.07475m  110.7112n  700.0000m  664.7862m   35.2139m 
 -469.97475m  111.3112n  700.0000m  664.6448m   35.3553m 
 -469.87475m  111.9146n  700.0000m  664.5034m   35.4967m 
 -469.77475m  112.5216n  700.0000m  664.3619m   35.6382m 
 -469.67475m  113.1320n  700.0000m  664.2205m   35.7796m 
 -469.57475m  113.7460n  700.0000m  664.0791m   35.9210m 
 -469.47475m  114.3636n  700.0000m  663.9377m   36.0624m 
 -469.37475m  114.9847n  700.0000m  663.7962m   36.2038m 
 -469.27475m  115.6094n  700.0000m  663.6548m   36.3453m 
 -469.17475m  116.2378n  700.0000m  663.5134m   36.4867m 
 -469.07475m  116.8698n  700.0000m  663.3720m   36.6281m 
 -468.97475m  117.5054n  700.0000m  663.2306m   36.7695m 
 -468.87475m  118.1448n  700.0000m  663.0891m   36.9109m 
 -468.77475m  118.7878n  700.0000m  662.9477m   37.0524m 
 -468.67475m  119.4346n  700.0000m  662.8063m   37.1938m 
 -468.57475m  120.0851n  700.0000m  662.6649m   37.3352m 
 -468.47475m  120.7394n  700.0000m  662.5235m   37.4766m 
 -468.37475m  121.3975n  700.0000m  662.3820m   37.6181m 
 -468.27475m  122.0594n  700.0000m  662.2406m   37.7595m 
 -468.17475m  122.7251n  700.0000m  662.0992m   37.9009m 
 -468.07475m  123.3947n  700.0000m  661.9578m   38.0423m 
 -467.97475m  124.0682n  700.0000m  661.8164m   38.1837m 
 -467.87475m  124.7456n  700.0000m  661.6749m   38.3252m 
 -467.77475m  125.4269n  700.0000m  661.5335m   38.4666m 
 -467.67475m  126.1122n  700.0000m  661.3921m   38.6080m 
 -467.57475m  126.8014n  700.0000m  661.2507m   38.7494m 
 -467.47475m  127.4947n  700.0000m  661.1093m   38.8908m 
 -467.37475m  128.1920n  700.0000m  660.9678m   39.0323m 
 -467.27475m  128.8933n  700.0000m  660.8264m   39.1737m 
 -467.17475m  129.5986n  700.0000m  660.6850m   39.3151m 
 -467.07475m  130.3081n  700.0000m  660.5436m   39.4565m 
 -466.97475m  131.0217n  700.0000m  660.4022m   39.5979m 
 -466.87475m  131.7394n  700.0000m  660.2607m   39.7394m 
 -466.77475m  132.4613n  700.0000m  660.1193m   39.8808m 
 -466.67475m  133.1874n  700.0000m  659.9779m   40.0222m 
 -466.57475m  133.9177n  700.0000m  659.8365m   40.1636m 
 -466.47475m  134.6522n  700.0000m  659.6950m   40.3051m 
 -466.37475m  135.3910n  700.0000m  659.5536m   40.4465m 
 -466.27475m  136.1341n  700.0000m  659.4122m   40.5879m 
 -466.17475m  136.8815n  700.0000m  659.2708m   40.7293m 
 -466.07475m  137.6332n  700.0000m  659.1294m   40.8707m 
 -465.97475m  138.3893n  700.0000m  658.9879m   41.0122m 
 -465.87475m  139.1498n  700.0000m  658.8465m   41.1536m 
 -465.77475m  139.9147n  700.0000m  658.7051m   41.2950m 
 -465.67475m  140.6840n  700.0000m  658.5637m   41.4364m 
 -465.57475m  141.4578n  700.0000m  658.4223m   41.5778m 
 -465.47475m  142.2361n  700.0000m  658.2808m   41.7193m 
 -465.37475m  143.0189n  700.0000m  658.1394m   41.8607m 
 -465.27475m  143.8063n  700.0000m  657.9980m   42.0021m 
 -465.17475m  144.5982n  700.0000m  657.8566m   42.1435m 
 -465.07475m  145.3947n  700.0000m  657.7152m   42.2849m 
 -464.97475m  146.1959n  700.0000m  657.5737m   42.4264m 
 -464.87475m  147.0017n  700.0000m  657.4323m   42.5678m 
 -464.77475m  147.8121n  700.0000m  657.2909m   42.7092m 
 -464.67475m  148.6273n  700.0000m  657.1495m   42.8506m 
 -464.57475m  149.4472n  700.0000m  657.0081m   42.9921m 
 -464.47475m  150.2719n  700.0000m  656.8666m   43.1335m 
 -464.37475m  151.1014n  700.0000m  656.7252m   43.2749m 
 -464.27475m  151.9357n  700.0000m  656.5838m   43.4163m 
 -464.17475m  152.7748n  700.0000m  656.4424m   43.5577m 
 -464.07475m  153.6188n  700.0000m  656.3010m   43.6992m 
 -463.97475m  154.4678n  700.0000m  656.1595m   43.8406m 
 -463.87475m  155.3216n  700.0000m  656.0181m   43.9820m 
 -463.77475m  156.1804n  700.0000m  655.8767m   44.1234m 
 -463.67475m  157.0442n  700.0000m  655.7353m   44.2648m 
 -463.57475m  157.9130n  700.0000m  655.5939m   44.4063m 
 -463.47475m  158.7869n  700.0000m  655.4524m   44.5477m 
 -463.37475m  159.6658n  700.0000m  655.3110m   44.6891m 
 -463.27475m  160.5499n  700.0000m  655.1696m   44.8305m 
 -463.17475m  161.4391n  700.0000m  655.0282m   44.9720m 
 -463.07475m  162.3334n  700.0000m  654.8867m   45.1134m 
 -462.97475m  163.2330n  700.0000m  654.7453m   45.2548m 
 -462.87475m  164.1378n  700.0000m  654.6039m   45.3962m 
 -462.77475m  165.0478n  700.0000m  654.4625m   45.5376m 
 -462.67475m  165.9631n  700.0000m  654.3211m   45.6791m 
 -462.57475m  166.8838n  700.0000m  654.1796m   45.8205m 
 -462.47475m  167.8098n  700.0000m  654.0382m   45.9619m 
 -462.37475m  168.7412n  700.0000m  653.8968m   46.1033m 
 -462.27475m  169.6780n  700.0000m  653.7554m   46.2447m 
 -462.17475m  170.6202n  700.0000m  653.6140m   46.3862m 
 -462.07475m  171.5679n  700.0000m  653.4725m   46.5276m 
 -461.97475m  172.5212n  700.0000m  653.3311m   46.6690m 
 -461.87475m  173.4800n  700.0000m  653.1897m   46.8104m 
 -461.77475m  174.4443n  700.0000m  653.0483m   46.9518m 
 -461.67475m  175.4143n  700.0000m  652.9069m   47.0933m 
 -461.57475m  176.3899n  700.0000m  652.7654m   47.2347m 
 -461.47475m  177.3712n  700.0000m  652.6240m   47.3761m 
 -461.37475m  178.3582n  700.0000m  652.4826m   47.5175m 
 -461.27475m  179.3509n  700.0000m  652.3412m   47.6590m 
 -461.17475m  180.3494n  700.0000m  652.1998m   47.8004m 
 -461.07475m  181.3537n  700.0000m  652.0583m   47.9418m 
 -460.97475m  182.3638n  700.0000m  651.9169m   48.0832m 
 -460.87475m  183.3799n  700.0000m  651.7755m   48.2246m 
 -460.77475m  184.4018n  700.0000m  651.6341m   48.3661m 
 -460.67475m  185.4297n  700.0000m  651.4927m   48.5075m 
 -460.57475m  186.4636n  700.0000m  651.3512m   48.6489m 
 -460.47475m  187.5034n  700.0000m  651.2098m   48.7903m 
 -460.37475m  188.5494n  700.0000m  651.0684m   48.9317m 
 -460.27475m  189.6014n  700.0000m  650.9270m   49.0732m 
 -460.17475m  190.6595n  700.0000m  650.7856m   49.2146m 
 -460.07475m  191.7238n  700.0000m  650.6441m   49.3560m 
 -459.97475m  192.7943n  700.0000m  650.5027m   49.4974m 
 -459.87475m  193.8711n  700.0000m  650.3613m   49.6388m 
 -459.77475m  194.9541n  700.0000m  650.2199m   49.7803m 
 -459.67475m  196.0434n  700.0000m  650.0785m   49.9217m 
 -459.57475m  197.1390n  700.0000m  649.9370m   50.0631m 
 -459.47475m  198.2410n  700.0000m  649.7956m   50.2045m 
 -459.37475m  199.3495n  700.0000m  649.6542m   50.3460m 
 -459.27475m  200.4643n  700.0000m  649.5128m   50.4874m 
 -459.17475m  201.5857n  700.0000m  649.3714m   50.6288m 
 -459.07475m  202.7136n  700.0000m  649.2299m   50.7702m 
 -458.97475m  203.8481n  700.0000m  649.0885m   50.9116m 
 -458.87475m  204.9892n  700.0000m  648.9471m   51.0531m 
 -458.77475m  206.1369n  700.0000m  648.8057m   51.1945m 
 -458.67475m  207.2913n  700.0000m  648.6643m   51.3359m 
 -458.57475m  208.4525n  699.9999m  648.5228m   51.4773m 
 -458.47475m  209.6204n  699.9999m  648.3814m   51.6187m 
 -458.37475m  210.7951n  699.9999m  648.2400m   51.7602m 
 -458.27475m  211.9766n  699.9999m  648.0986m   51.9016m 
 -458.17475m  213.1651n  699.9999m  647.9572m   52.0430m 
 -458.07475m  214.3604n  699.9999m  647.8157m   52.1844m 
 -457.97475m  215.5627n  699.9999m  647.6743m   52.3259m 
 -457.87475m  216.7720n  699.9999m  647.5329m   52.4673m 
 -457.77475m  217.9884n  699.9999m  647.3915m   52.6087m 
 -457.67475m  219.2119n  699.9999m  647.2501m   52.7501m 
 -457.57475m  220.4424n  699.9999m  647.1086m   52.8915m 
 -457.47475m  221.6802n  699.9999m  646.9672m   53.0330m 
 -457.37475m  222.9252n  699.9999m  646.8258m   53.1744m 
 -457.27475m  224.1774n  699.9999m  646.6844m   53.3158m 
 -457.17475m  225.4369n  699.9999m  646.5430m   53.4572m 
 -457.07475m  226.7038n  699.9999m  646.4015m   53.5986m 
 -456.97475m  227.9780n  699.9999m  646.2601m   53.7401m 
 -456.87475m  229.2597n  699.9999m  646.1187m   53.8815m 
 -456.77475m  230.5489n  699.9999m  645.9773m   54.0229m 
 -456.67475m  231.8455n  699.9999m  645.8359m   54.1643m 
 -456.57475m  233.1498n  699.9999m  645.6944m   54.3057m 
 -456.47475m  234.4616n  699.9999m  645.5530m   54.4472m 
 -456.37475m  235.7811n  699.9999m  645.4116m   54.5886m 
 -456.27475m  237.1082n  699.9999m  645.2702m   54.7300m 
 -456.17475m  238.4431n  699.9999m  645.1288m   54.8714m 
 -456.07475m  239.7858n  699.9999m  644.9873m   55.0129m 
 -455.97475m  241.1364n  699.9999m  644.8459m   55.1543m 
 -455.87475m  242.4948n  699.9999m  644.7045m   55.2957m 
 -455.77475m  243.8611n  699.9999m  644.5631m   55.4371m 
 -455.67475m  245.2354n  699.9999m  644.4217m   55.5785m 
 -455.57475m  246.6177n  699.9999m  644.2802m   55.7200m 
 -455.47475m  248.0081n  699.9999m  644.1388m   55.8614m 
 -455.37475m  249.4066n  699.9999m  643.9974m   56.0028m 
 -455.27475m  250.8132n  699.9999m  643.8560m   56.1442m 
 -455.17475m  252.2281n  699.9999m  643.7146m   56.2856m 
 -455.07475m  253.6512n  699.9999m  643.5731m   56.4271m 
 -454.97475m  255.0826n  699.9999m  643.4317m   56.5685m 
 -454.87475m  256.5224n  699.9999m  643.2903m   56.7099m 
 -454.77475m  257.9705n  699.9999m  643.1489m   56.8513m 
 -454.67475m  259.4271n  699.9999m  643.0075m   56.9927m 
 -454.57475m  260.8923n  699.9999m  642.8660m   57.1342m 
 -454.47475m  262.3659n  699.9999m  642.7246m   57.2756m 
 -454.37475m  263.8482n  699.9999m  642.5832m   57.4170m 
 -454.27475m  265.3391n  699.9999m  642.4418m   57.5584m 
 -454.17475m  266.8388n  699.9999m  642.3004m   57.6999m 
 -454.07475m  268.3472n  699.9999m  642.1589m   57.8413m 
 -453.97475m  269.8643n  699.9999m  642.0175m   57.9827m 
 -453.87475m  271.3904n  699.9999m  641.8761m   58.1241m 
 -453.77475m  272.9253n  699.9999m  641.7347m   58.2655m 
 -453.67475m  274.4693n  699.9999m  641.5933m   58.4070m 
 -453.57475m  276.0222n  699.9999m  641.4518m   58.5484m 
 -453.47475m  277.5842n  699.9999m  641.3104m   58.6898m 
 -453.37475m  279.1553n  699.9999m  641.1690m   58.8312m 
 -453.27475m  280.7356n  699.9999m  641.0276m   58.9726m 
 -453.17475m  282.3252n  699.9999m  640.8862m   59.1141m 
 -453.07475m  283.9240n  699.9999m  640.7447m   59.2555m 
 -452.97475m  285.5321n  699.9999m  640.6033m   59.3969m 
 -452.87475m  287.1497n  699.9999m  640.4619m   59.5383m 
 -452.77475m  288.7767n  699.9999m  640.3205m   59.6797m 
 -452.67475m  290.4132n  699.9999m  640.1791m   59.8212m 
 -452.57475m  292.0593n  699.9999m  640.0376m   59.9626m 
 -452.47475m  293.7150n  699.9999m  639.8962m   60.1040m 
 -452.37475m  295.3803n  699.9999m  639.7548m   60.2454m 
 -452.27475m  297.0554n  699.9999m  639.6134m   60.3868m 
 -452.17475m  298.7403n  699.9999m  639.4720m   60.5283m 
 -452.07475m  300.4350n  699.9999m  639.3305m   60.6697m 
 -451.97475m  302.1396n  699.9999m  639.1891m   60.8111m 
 -451.87475m  303.8542n  699.9999m  639.0477m   60.9525m 
 -451.77475m  305.5788n  699.9999m  638.9063m   61.0940m 
 -451.67475m  307.3135n  699.9999m  638.7649m   61.2354m 
 -451.57475m  309.0584n  699.9999m  638.6234m   61.3768m 
 -451.47475m  310.8134n  699.9999m  638.4820m   61.5182m 
 -451.37475m  312.5787n  699.9999m  638.3406m   61.6596m 
 -451.27475m  314.3543n  699.9999m  638.1992m   61.8011m 
 -451.17475m  316.1403n  699.9999m  638.0578m   61.9425m 
 -451.07475m  317.9368n  699.9999m  637.9163m   62.0839m 
 -450.97475m  319.7437n  699.9999m  637.7749m   62.2253m 
 -450.87475m  321.5612n  699.9999m  637.6335m   62.3667m 
 -450.77475m  323.3894n  699.9999m  637.4921m   62.5082m 
 -450.67475m  325.2282n  699.9999m  637.3507m   62.6496m 
 -450.57475m  327.0778n  699.9999m  637.2092m   62.7910m 
 -450.47475m  328.9382n  699.9999m  637.0678m   62.9324m 
 -450.37475m  330.8095n  699.9999m  636.9264m   63.0738m 
 -450.27475m  332.6918n  699.9999m  636.7850m   63.2153m 
 -450.17475m  334.5850n  699.9999m  636.6436m   63.3567m 
 -450.07475m  336.4893n  699.9999m  636.5021m   63.4981m 
 -449.97475m  338.4048n  699.9999m  636.3607m   63.6395m 
 -449.87475m  340.3315n  699.9999m  636.2193m   63.7810m 
 -449.77475m  342.2695n  699.9999m  636.0779m   63.9224m 
 -449.67475m  344.2187n  699.9999m  635.9365m   64.0638m 
 -449.57475m  346.1794n  699.9999m  635.7951m   64.2052m 
 -449.47475m  348.1516n  699.9999m  635.6536m   64.3466m 
 -449.37475m  350.1353n  699.9999m  635.5122m   64.4881m 
 -449.27475m  352.1307n  699.9999m  635.3708m   64.6295m 
 -449.17475m  354.1377n  699.9999m  635.2294m   64.7709m 
 -449.07475m  356.1564n  699.9999m  635.0880m   64.9123m 
 -448.97475m  358.1870n  699.9999m  634.9465m   65.0537m 
 -448.87475m  360.2295n  699.9999m  634.8051m   65.1952m 
 -448.77475m  362.2839n  699.9999m  634.6637m   65.3366m 
 -448.67475m  364.3504n  699.9999m  634.5223m   65.4780m 
 -448.57475m  366.4289n  699.9999m  634.3809m   65.6194m 
 -448.47475m  368.5196n  699.9999m  634.2394m   65.7608m 
 -448.37475m  370.6226n  699.9999m  634.0980m   65.9023m 
 -448.27475m  372.7379n  699.9999m  633.9566m   66.0437m 
 -448.17475m  374.8655n  699.9999m  633.8152m   66.1851m 
 -448.07475m  377.0057n  699.9999m  633.6738m   66.3265m 
 -447.97475m  379.1583n  699.9999m  633.5323m   66.4679m 
 -447.87475m  381.3236n  699.9999m  633.3909m   66.6094m 
 -447.77475m  383.5016n  699.9999m  633.2495m   66.7508m 
 -447.67475m  385.6923n  699.9999m  633.1081m   66.8922m 
 -447.57475m  387.8959n  699.9999m  632.9667m   67.0336m 
 -447.47475m  390.1123n  699.9999m  632.8252m   67.1751m 
 -447.37475m  392.3418n  699.9999m  632.6838m   67.3165m 
 -447.27475m  394.5843n  699.9999m  632.5424m   67.4579m 
 -447.17475m  396.8400n  699.9999m  632.4010m   67.5993m 
 -447.07475m  399.1089n  699.9999m  632.2596m   67.7407m 
 -446.97475m  401.3910n  699.9999m  632.1182m   67.8822m 
 -446.87475m  403.6866n  699.9999m  631.9767m   68.0236m 
 -446.77475m  405.9956n  699.9999m  631.8353m   68.1650m 
 -446.67475m  408.3181n  699.9999m  631.6939m   68.3064m 
 -446.57475m  410.6543n  699.9999m  631.5525m   68.4478m 
 -446.47475m  413.0042n  699.9999m  631.4111m   68.5893m 
 -446.37475m  415.3678n  699.9999m  631.2696m   68.7307m 
 -446.27475m  417.7453n  699.9999m  631.1282m   68.8721m 
 -446.17475m  420.1367n  699.9999m  630.9868m   69.0135m 
 -446.07475m  422.5422n  699.9999m  630.8454m   69.1549m 
 -445.97475m  424.9617n  699.9999m  630.7040m   69.2964m 
 -445.87475m  427.3955n  699.9999m  630.5625m   69.4378m 
 -445.77475m  429.8435n  699.9999m  630.4211m   69.5792m 
 -445.67475m  432.3059n  699.9999m  630.2797m   69.7206m 
 -445.57475m  434.7827n  699.9999m  630.1383m   69.8620m 
 -445.47475m  437.2741n  699.9999m  629.9969m   70.0035m 
 -445.37475m  439.7800n  699.9999m  629.8554m   70.1449m 
 -445.27475m  442.3007n  699.9999m  629.7140m   70.2863m 
 -445.17475m  444.8362n  699.9999m  629.5726m   70.4277m 
 -445.07475m  447.3865n  699.9999m  629.4312m   70.5692m 
 -444.97475m  449.9518n  699.9999m  629.2898m   70.7106m 
 -444.87475m  452.5322n  699.9999m  629.1484m   70.8520m 
 -444.77475m  455.1277n  699.9999m  629.0069m   70.9934m 
 -444.67475m  457.7384n  699.9999m  628.8655m   71.1348m 
 -444.57475m  460.3644n  699.9999m  628.7241m   71.2763m 
 -444.47475m  463.0059n  699.9999m  628.5827m   71.4177m 
 -444.37475m  465.6629n  699.9999m  628.4413m   71.5591m 
 -444.27475m  468.3354n  699.9999m  628.2998m   71.7005m 
 -444.17475m  471.0237n  699.9999m  628.1584m   71.8419m 
 -444.07475m  473.7277n  699.9999m  628.0170m   71.9834m 
 -443.97475m  476.4476n  699.9999m  627.8756m   72.1248m 
 -443.87475m  479.1835n  699.9999m  627.7342m   72.2662m 
 -443.77475m  481.9355n  699.9999m  627.5927m   72.4076m 
 -443.67475m  484.7036n  699.9999m  627.4513m   72.5490m 
 -443.57475m  487.4879n  699.9999m  627.3099m   72.6905m 
 -443.47475m  490.2887n  699.9999m  627.1685m   72.8319m 
 -443.37475m  493.1058n  699.9999m  627.0271m   72.9733m 
 -443.27475m  495.9395n  699.9999m  626.8857m   73.1147m 
 -443.17475m  498.7899n  699.9999m  626.7442m   73.2561m 
 -443.07475m  501.6570n  699.9999m  626.6028m   73.3976m 
 -442.97475m  504.5409n  699.9999m  626.4614m   73.5390m 
 -442.87475m  507.4418n  699.9999m  626.3200m   73.6804m 
 -442.77475m  510.3597n  699.9999m  626.1786m   73.8218m 
 -442.67475m  513.2948n  699.9999m  626.0371m   73.9633m 
 -442.57475m  516.2471n  699.9999m  625.8957m   74.1047m 
 -442.47475m  519.2168n  699.9999m  625.7543m   74.2461m 
 -442.37475m  522.2039n  699.9999m  625.6129m   74.3875m 
 -442.27475m  525.2086n  699.9999m  625.4715m   74.5289m 
 -442.17475m  528.2309n  699.9999m  625.3301m   74.6704m 
 -442.07475m  531.2710n  699.9999m  625.1886m   74.8118m 
 -441.97475m  534.3290n  699.9999m  625.0472m   74.9532m 
 -441.87475m  537.4050n  699.9999m  624.9058m   75.0946m 
 -441.77475m  540.4990n  699.9999m  624.7644m   75.2360m 
 -441.67475m  543.6112n  699.9999m  624.6230m   75.3775m 
 -441.57475m  546.7417n  699.9999m  624.4815m   75.5189m 
 -441.47475m  549.8907n  699.9999m  624.3401m   75.6603m 
 -441.37475m  553.0581n  699.9999m  624.1987m   75.8017m 
 -441.27475m  556.2442n  699.9999m  624.0573m   75.9431m 
 -441.17475m  559.4490n  699.9999m  623.9159m   76.0846m 
 -441.07475m  562.6727n  699.9999m  623.7745m   76.2260m 
 -440.97475m  565.9153n  699.9999m  623.6330m   76.3674m 
 -440.87475m  569.1770n  699.9999m  623.4916m   76.5088m 
 -440.77475m  572.4579n  699.9999m  623.3502m   76.6502m 
 -440.67475m  575.7580n  699.9999m  623.2088m   76.7917m 
 -440.57475m  579.0776n  699.9999m  623.0674m   76.9331m 
 -440.47475m  582.4168n  699.9999m  622.9259m   77.0745m 
 -440.37475m  585.7755n  699.9999m  622.7845m   77.2159m 
 -440.27475m  589.1541n  699.9999m  622.6431m   77.3573m 
 -440.17475m  592.5525n  699.9999m  622.5017m   77.4988m 
 -440.07475m  595.9709n  699.9999m  622.3603m   77.6402m 
 -439.97475m  599.4095n  699.9999m  622.2189m   77.7816m 
 -439.87475m  602.8682n  699.9999m  622.0774m   77.9230m 
 -439.77475m  606.3474n  699.9999m  621.9360m   78.0644m 
 -439.67475m  609.8470n  699.9999m  621.7946m   78.2059m 
 -439.57475m  613.3672n  699.9999m  621.6532m   78.3473m 
 -439.47475m  616.9081n  699.9999m  621.5118m   78.4887m 
 -439.37475m  620.4699n  699.9999m  621.3703m   78.6301m 
 -439.27475m  624.0527n  699.9999m  621.2289m   78.7716m 
 -439.17475m  627.6565n  699.9999m  621.0875m   78.9130m 
 -439.07475m  631.2816n  699.9999m  620.9461m   79.0544m 
 -438.97475m  634.9281n  699.9999m  620.8047m   79.1958m 
 -438.87475m  638.5960n  699.9999m  620.6633m   79.3372m 
 -438.77475m  642.2855n  699.9999m  620.5218m   79.4787m 
 -438.67475m  645.9967n  699.9999m  620.3804m   79.6201m 
 -438.57475m  649.7298n  699.9999m  620.2390m   79.7615m 
 -438.47475m  653.4849n  699.9998m  620.0976m   79.9029m 
 -438.37475m  657.2621n  699.9998m  619.9562m   80.0443m 
 -438.27475m  661.0616n  699.9998m  619.8148m   80.1858m 
 -438.17475m  664.8834n  699.9998m  619.6733m   80.3272m 
 -438.07475m  668.7278n  699.9998m  619.5319m   80.4686m 
 -437.97475m  672.5948n  699.9998m  619.3905m   80.6100m 
 -437.87475m  676.4846n  699.9998m  619.2491m   80.7514m 
 -437.77475m  680.3974n  699.9998m  619.1077m   80.8929m 
 -437.67475m  684.3332n  699.9998m  618.9662m   81.0343m 
 -437.57475m  688.2922n  699.9998m  618.8248m   81.1757m 
 -437.47475m  692.2745n  699.9998m  618.6834m   81.3171m 
 -437.37475m  696.2803n  699.9998m  618.5420m   81.4585m 
 -437.27475m  700.3098n  699.9998m  618.4006m   81.6000m 
 -437.17475m  704.3629n  699.9998m  618.2592m   81.7414m 
 -437.07475m  708.4400n  699.9998m  618.1177m   81.8828m 
 -436.97475m  712.5412n  699.9998m  617.9763m   82.0242m 
 -436.87475m  716.6665n  699.9998m  617.8349m   82.1656m 
 -436.77475m  720.8161n  699.9998m  617.6935m   82.3071m 
 -436.67475m  724.9902n  699.9998m  617.5521m   82.4485m 
 -436.57475m  729.1889n  699.9998m  617.4107m   82.5899m 
 -436.47475m  733.4124n  699.9998m  617.2692m   82.7313m 
 -436.37475m  737.6608n  699.9998m  617.1278m   82.8727m 
 -436.27475m  741.9343n  699.9998m  616.9864m   83.0142m 
 -436.17475m  746.2330n  699.9998m  616.8450m   83.1556m 
 -436.07475m  750.5570n  699.9998m  616.7036m   83.2970m 
 -435.97475m  754.9066n  699.9998m  616.5622m   83.4384m 
 -435.87475m  759.2818n  699.9998m  616.4207m   83.5798m 
 -435.77475m  763.6828n  699.9998m  616.2793m   83.7213m 
 -435.67475m  768.1098n  699.9998m  616.1379m   83.8627m 
 -435.57475m  772.5630n  699.9998m  615.9965m   84.0041m 
 -435.47475m  777.0424n  699.9998m  615.8551m   84.1455m 
 -435.37475m  781.5482n  699.9998m  615.7137m   84.2869m 
 -435.27475m  786.0807n  699.9998m  615.5722m   84.4284m 
 -435.17475m  790.6399n  699.9998m  615.4308m   84.5698m 
 -435.07475m  795.2260n  699.9998m  615.2894m   84.7112m 
 -434.97475m  799.8393n  699.9998m  615.1480m   84.8526m 
 -434.87475m  804.4797n  699.9998m  615.0066m   84.9941m 
 -434.77475m  809.1475n  699.9998m  614.8652m   85.1355m 
 -434.67475m  813.8430n  699.9998m  614.7237m   85.2769m 
 -434.57475m  818.5661n  699.9998m  614.5823m   85.4183m 
 -434.47475m  823.3171n  699.9998m  614.4409m   85.5597m 
 -434.37475m  828.0962n  699.9998m  614.2995m   85.7012m 
 -434.27475m  832.9036n  699.9998m  614.1581m   85.8426m 
 -434.17475m  837.7393n  699.9998m  614.0167m   85.9840m 
 -434.07475m  842.6036n  699.9998m  613.8752m   86.1254m 
 -433.97475m  847.4966n  699.9998m  613.7338m   86.2668m 
 -433.87475m  852.4185n  699.9998m  613.5924m   86.4083m 
 -433.77475m  857.3696n  699.9998m  613.4510m   86.5497m 
 -433.67475m  862.3498n  699.9998m  613.3096m   86.6911m 
 -433.57475m  867.3595n  699.9998m  613.1682m   86.8325m 
 -433.47475m  872.3989n  699.9998m  613.0267m   86.9739m 
 -433.37475m  877.4679n  699.9998m  612.8853m   87.1154m 
 -433.27475m  882.5670n  699.9998m  612.7439m   87.2568m 
 -433.17475m  887.6962n  699.9998m  612.6025m   87.3982m 
 -433.07475m  892.8557n  699.9998m  612.4611m   87.5396m 
 -432.97475m  898.0457n  699.9998m  612.3197m   87.6810m 
 -432.87475m  903.2665n  699.9998m  612.1782m   87.8225m 
 -432.77475m  908.5180n  699.9998m  612.0368m   87.9639m 
 -432.67475m  913.8007n  699.9998m  611.8954m   88.1053m 
 -432.57475m  919.1145n  699.9998m  611.7540m   88.2467m 
 -432.47475m  924.4598n  699.9998m  611.6126m   88.3881m 
 -432.37475m  929.8367n  699.9998m  611.4712m   88.5296m 
 -432.27475m  935.2454n  699.9998m  611.3297m   88.6710m 
 -432.17475m  940.6861n  699.9998m  611.1883m   88.8124m 
 -432.07475m  946.1590n  699.9998m  611.0469m   88.9538m 
 -431.97475m  951.6642n  699.9998m  610.9055m   89.0952m 
 -431.87475m  957.2021n  699.9998m  610.7641m   89.2367m 
 -431.77475m  962.7727n  699.9998m  610.6227m   89.3781m 
 -431.67475m  968.3762n  699.9998m  610.4812m   89.5195m 
 -431.57475m  974.0129n  699.9998m  610.3398m   89.6609m 
 -431.47475m  979.6830n  699.9998m  610.1984m   89.8023m 
 -431.37475m  985.3866n  699.9998m  610.0570m   89.9438m 
 -431.27475m  991.1240n  699.9998m  609.9156m   90.0852m 
 -431.17475m  996.8953n  699.9998m  609.7742m   90.2266m 
 -431.07475m    1.0027u  699.9998m  609.6328m   90.3680m 
 -430.97475m    1.0085u  699.9998m  609.4913m   90.5094m 
 -430.87475m    1.0144u  699.9998m  609.3499m   90.6509m 
 -430.77475m    1.0203u  699.9998m  609.2085m   90.7923m 
 -430.67475m    1.0263u  699.9998m  609.0671m   90.9337m 
 -430.57475m    1.0322u  699.9998m  608.9257m   91.0751m 
 -430.47475m    1.0383u  699.9998m  608.7843m   91.2165m 
 -430.37475m    1.0443u  699.9998m  608.6428m   91.3580m 
 -430.27475m    1.0504u  699.9998m  608.5014m   91.4994m 
 -430.17475m    1.0565u  699.9998m  608.3600m   91.6408m 
 -430.07475m    1.0627u  699.9998m  608.2186m   91.7822m 
 -429.97475m    1.0689u  699.9998m  608.0772m   91.9236m 
 -429.87475m    1.0751u  699.9998m  607.9358m   92.0651m 
 -429.77475m    1.0814u  699.9998m  607.7944m   92.2065m 
 -429.67475m    1.0877u  699.9998m  607.6529m   92.3479m 
 -429.57475m    1.0940u  699.9998m  607.5115m   92.4893m 
 -429.47475m    1.1004u  699.9998m  607.3701m   92.6307m 
 -429.37475m    1.1068u  699.9997m  607.2287m   92.7722m 
 -429.27475m    1.1133u  699.9997m  607.0873m   92.9136m 
 -429.17475m    1.1198u  699.9997m  606.9459m   93.0550m 
 -429.07475m    1.1263u  699.9997m  606.8045m   93.1964m 
 -428.97475m    1.1329u  699.9997m  606.6630m   93.3378m 
 -428.87475m    1.1395u  699.9997m  606.5216m   93.4793m 
 -428.77475m    1.1461u  699.9997m  606.3802m   93.6207m 
 -428.67475m    1.1528u  699.9997m  606.2388m   93.7621m 
 -428.57475m    1.1596u  699.9997m  606.0974m   93.9035m 
 -428.47475m    1.1663u  699.9997m  605.9560m   94.0449m 
 -428.37475m    1.1731u  699.9997m  605.8145m   94.1864m 
 -428.27475m    1.1800u  699.9997m  605.6731m   94.3278m 
 -428.17475m    1.1869u  699.9997m  605.5317m   94.4692m 
 -428.07475m    1.1938u  699.9997m  605.3903m   94.6106m 
 -427.97475m    1.2008u  699.9997m  605.2489m   94.7520m 
 -427.87475m    1.2078u  699.9997m  605.1075m   94.8935m 
 -427.77475m    1.2149u  699.9997m  604.9661m   95.0349m 
 -427.67475m    1.2220u  699.9997m  604.8246m   95.1763m 
 -427.57475m    1.2291u  699.9997m  604.6832m   95.3177m 
 -427.47475m    1.2363u  699.9997m  604.5418m   95.4591m 
 -427.37475m    1.2435u  699.9997m  604.4004m   95.6006m 
 -427.27475m    1.2508u  699.9997m  604.2590m   95.7420m 
 -427.17475m    1.2581u  699.9997m  604.1176m   95.8834m 
 -427.07475m    1.2654u  699.9997m  603.9762m   96.0248m 
 -426.97475m    1.2728u  699.9997m  603.8348m   96.1662m 
 -426.87475m    1.2803u  699.9997m  603.6933m   96.3077m 
 -426.77475m    1.2878u  699.9997m  603.5519m   96.4491m 
 -426.67475m    1.2953u  699.9997m  603.4105m   96.5905m 
 -426.57475m    1.3029u  699.9997m  603.2691m   96.7319m 
 -426.47475m    1.3105u  699.9997m  603.1277m   96.8733m 
 -426.37475m    1.3181u  699.9997m  602.9863m   97.0148m 
 -426.27475m    1.3259u  699.9997m  602.8449m   97.1562m 
 -426.17475m    1.3336u  699.9997m  602.7034m   97.2976m 
 -426.07475m    1.3414u  699.9997m  602.5620m   97.4390m 
 -425.97475m    1.3493u  699.9997m  602.4206m   97.5804m 
 -425.87475m    1.3572u  699.9997m  602.2792m   97.7219m 
 -425.77475m    1.3651u  699.9997m  602.1378m   97.8633m 
 -425.67475m    1.3731u  699.9997m  601.9964m   98.0047m 
 -425.57475m    1.3811u  699.9997m  601.8550m   98.1461m 
 -425.47475m    1.3892u  699.9997m  601.7135m   98.2875m 
 -425.37475m    1.3973u  699.9997m  601.5721m   98.4290m 
 -425.27475m    1.4055u  699.9997m  601.4307m   98.5704m 
 -425.17475m    1.4137u  699.9997m  601.2893m   98.7118m 
 -425.07475m    1.4220u  699.9997m  601.1479m   98.8532m 
 -424.97475m    1.4304u  699.9997m  601.0065m   98.9946m 
 -424.87475m    1.4387u  699.9997m  600.8651m   99.1360m 
 -424.77475m    1.4472u  699.9997m  600.7237m   99.2775m 
 -424.67475m    1.4556u  699.9997m  600.5822m   99.4189m 
 -424.57475m    1.4642u  699.9997m  600.4408m   99.5603m 
 -424.47475m    1.4727u  699.9997m  600.2994m   99.7017m 
 -424.37475m    1.4814u  699.9997m  600.1580m   99.8431m 
 -424.27475m    1.4901u  699.9997m  600.0166m   99.9846m 
 -424.17475m    1.4988u  699.9997m  599.8752m  100.1260m 
 -424.07475m    1.5076u  699.9997m  599.7338m  100.2674m 
 -423.97475m    1.5164u  699.9997m  599.5924m  100.4088m 
 -423.87475m    1.5253u  699.9997m  599.4509m  100.5502m 
 -423.77475m    1.5342u  699.9997m  599.3095m  100.6917m 
 -423.67475m    1.5432u  699.9997m  599.1681m  100.8331m 
 -423.57475m    1.5523u  699.9997m  599.0267m  100.9745m 
 -423.47475m    1.5614u  699.9997m  598.8853m  101.1159m 
 -423.37475m    1.5705u  699.9996m  598.7439m  101.2573m 
 -423.27475m    1.5797u  699.9996m  598.6025m  101.3988m 
 -423.17475m    1.5890u  699.9996m  598.4611m  101.5402m 
 -423.07475m    1.5983u  699.9996m  598.3196m  101.6816m 
 -422.97475m    1.6077u  699.9996m  598.1782m  101.8230m 
 -422.87475m    1.6171u  699.9996m  598.0368m  101.9644m 
 -422.77475m    1.6266u  699.9996m  597.8954m  102.1059m 
 -422.67475m    1.6362u  699.9996m  597.7540m  102.2473m 
 -422.57475m    1.6458u  699.9996m  597.6126m  102.3887m 
 -422.47475m    1.6554u  699.9996m  597.4712m  102.5301m 
 -422.37475m    1.6652u  699.9996m  597.3298m  102.6715m 
 -422.27475m    1.6749u  699.9996m  597.1883m  102.8130m 
 -422.17475m    1.6848u  699.9996m  597.0469m  102.9544m 
 -422.07475m    1.6947u  699.9996m  596.9055m  103.0958m 
 -421.97475m    1.7046u  699.9996m  596.7641m  103.2372m 
 -421.87475m    1.7146u  699.9996m  596.6227m  103.3786m 
 -421.77475m    1.7247u  699.9996m  596.4813m  103.5200m 
 -421.67475m    1.7348u  699.9996m  596.3399m  103.6615m 
 -421.57475m    1.7450u  699.9996m  596.1985m  103.8029m 
 -421.47475m    1.7552u  699.9996m  596.0571m  103.9443m 
 -421.37475m    1.7656u  699.9996m  595.9156m  104.0857m 
 -421.27475m    1.7759u  699.9996m  595.7742m  104.2271m 
 -421.17475m    1.7864u  699.9996m  595.6328m  104.3686m 
 -421.07475m    1.7969u  699.9996m  595.4914m  104.5100m 
 -420.97475m    1.8074u  699.9996m  595.3500m  104.6514m 
 -420.87475m    1.8180u  699.9996m  595.2086m  104.7928m 
 -420.77475m    1.8287u  699.9996m  595.0672m  104.9342m 
 -420.67475m    1.8395u  699.9996m  594.9258m  105.0757m 
 -420.57475m    1.8503u  699.9996m  594.7844m  105.2171m 
 -420.47475m    1.8612u  699.9996m  594.6430m  105.3585m 
 -420.37475m    1.8721u  699.9996m  594.5015m  105.4999m 
 -420.27475m    1.8831u  699.9996m  594.3601m  105.6413m 
 -420.17475m    1.8942u  699.9996m  594.2187m  105.7828m 
 -420.07475m    1.9053u  699.9996m  594.0773m  105.9242m 
 -419.97475m    1.9165u  699.9996m  593.9359m  106.0656m 
 -419.87475m    1.9278u  699.9996m  593.7945m  106.2070m 
 -419.77475m    1.9391u  699.9996m  593.6531m  106.3484m 
 -419.67475m    1.9506u  699.9996m  593.5117m  106.4898m 
 -419.57475m    1.9620u  699.9996m  593.3703m  106.6313m 
 -419.47475m    1.9736u  699.9996m  593.2288m  106.7727m 
 -419.37475m    1.9852u  699.9996m  593.0874m  106.9141m 
 -419.27475m    1.9969u  699.9996m  592.9460m  107.0555m 
 -419.17475m    2.0086u  699.9996m  592.8046m  107.1969m 
 -419.07475m    2.0204u  699.9996m  592.6632m  107.3384m 
 -418.97475m    2.0323u  699.9995m  592.5218m  107.4798m 
 -418.87475m    2.0443u  699.9995m  592.3804m  107.6212m 
 -418.77475m    2.0563u  699.9995m  592.2390m  107.7626m 
 -418.67475m    2.0684u  699.9995m  592.0976m  107.9040m 
 -418.57475m    2.0806u  699.9995m  591.9562m  108.0455m 
 -418.47475m    2.0929u  699.9995m  591.8148m  108.1869m 
 -418.37475m    2.1052u  699.9995m  591.6733m  108.3283m 
 -418.27475m    2.1176u  699.9995m  591.5319m  108.4697m 
 -418.17475m    2.1301u  699.9995m  591.3905m  108.6111m 
 -418.07475m    2.1426u  699.9995m  591.2491m  108.7525m 
 -417.97475m    2.1552u  699.9995m  591.1077m  108.8940m 
 -417.87475m    2.1679u  699.9995m  590.9663m  109.0354m 
 -417.77475m    2.1807u  699.9995m  590.8249m  109.1768m 
 -417.67475m    2.1936u  699.9995m  590.6835m  109.3182m 
 -417.57475m    2.2065u  699.9995m  590.5421m  109.4596m 
 -417.47475m    2.2195u  699.9995m  590.4007m  109.6011m 
 -417.37475m    2.2326u  699.9995m  590.2593m  109.7425m 
 -417.27475m    2.2457u  699.9995m  590.1179m  109.8839m 
 -417.17475m    2.2590u  699.9995m  589.9764m  110.0253m 
 -417.07475m    2.2723u  699.9995m  589.8350m  110.1667m 
 -416.97475m    2.2857u  699.9995m  589.6936m  110.3082m 
 -416.87475m    2.2992u  699.9995m  589.5522m  110.4496m 
 -416.77475m    2.3127u  699.9995m  589.4108m  110.5910m 
 -416.67475m    2.3264u  699.9995m  589.2694m  110.7324m 
 -416.57475m    2.3401u  699.9995m  589.1280m  110.8738m 
 -416.47475m    2.3539u  699.9995m  588.9866m  111.0152m 
 -416.37475m    2.3678u  699.9995m  588.8452m  111.1567m 
 -416.27475m    2.3818u  699.9995m  588.7038m  111.2981m 
 -416.17475m    2.3958u  699.9995m  588.5624m  111.4395m 
 -416.07475m    2.4099u  699.9995m  588.4210m  111.5809m 
 -415.97475m    2.4242u  699.9995m  588.2796m  111.7223m 
 -415.87475m    2.4385u  699.9995m  588.1381m  111.8638m 
 -415.77475m    2.4529u  699.9995m  587.9967m  112.0052m 
 -415.67475m    2.4673u  699.9995m  587.8553m  112.1466m 
 -415.57475m    2.4819u  699.9995m  587.7139m  112.2880m 
 -415.47475m    2.4966u  699.9994m  587.5725m  112.4294m 
 -415.37475m    2.5113u  699.9994m  587.4311m  112.5708m 
 -415.27475m    2.5261u  699.9994m  587.2897m  112.7123m 
 -415.17475m    2.5410u  699.9994m  587.1483m  112.8537m 
 -415.07475m    2.5560u  699.9994m  587.0069m  112.9951m 
 -414.97475m    2.5711u  699.9994m  586.8655m  113.1365m 
 -414.87475m    2.5863u  699.9994m  586.7241m  113.2779m 
 -414.77475m    2.6016u  699.9994m  586.5827m  113.4194m 
 -414.67475m    2.6170u  699.9994m  586.4413m  113.5608m 
 -414.57475m    2.6324u  699.9994m  586.2999m  113.7022m 
 -414.47475m    2.6480u  699.9994m  586.1585m  113.8436m 
 -414.37475m    2.6636u  699.9994m  586.0171m  113.9850m 
 -414.27475m    2.6794u  699.9994m  585.8756m  114.1264m 
 -414.17475m    2.6952u  699.9994m  585.7342m  114.2679m 
 -414.07475m    2.7111u  699.9994m  585.5928m  114.4093m 
 -413.97475m    2.7272u  699.9994m  585.4514m  114.5507m 
 -413.87475m    2.7433u  699.9994m  585.3100m  114.6921m 
 -413.77475m    2.7595u  699.9994m  585.1686m  114.8335m 
 -413.67475m    2.7758u  699.9994m  585.0272m  114.9750m 
 -413.57475m    2.7922u  699.9994m  584.8858m  115.1164m 
 -413.47475m    2.8087u  699.9994m  584.7444m  115.2578m 
 -413.37475m    2.8253u  699.9994m  584.6030m  115.3992m 
 -413.27475m    2.8421u  699.9994m  584.4616m  115.5406m 
 -413.17475m    2.8589u  699.9994m  584.3202m  115.6820m 
 -413.07475m    2.8758u  699.9994m  584.1788m  115.8235m 
 -412.97475m    2.8928u  699.9994m  584.0374m  115.9649m 
 -412.87475m    2.9099u  699.9994m  583.8960m  116.1063m 
 -412.77475m    2.9271u  699.9994m  583.7546m  116.2477m 
 -412.67475m    2.9444u  699.9994m  583.6132m  116.3891m 
 -412.57475m    2.9619u  699.9993m  583.4718m  116.5305m 
 -412.47475m    2.9794u  699.9993m  583.3304m  116.6720m 
 -412.37475m    2.9970u  699.9993m  583.1890m  116.8134m 
 -412.27475m    3.0148u  699.9993m  583.0476m  116.9548m 
 -412.17475m    3.0326u  699.9993m  582.9061m  117.0962m 
 -412.07475m    3.0506u  699.9993m  582.7647m  117.2376m 
 -411.97475m    3.0686u  699.9993m  582.6233m  117.3791m 
 -411.87475m    3.0868u  699.9993m  582.4819m  117.5205m 
 -411.77475m    3.1051u  699.9993m  582.3405m  117.6619m 
 -411.67475m    3.1234u  699.9993m  582.1991m  117.8033m 
 -411.57475m    3.1419u  699.9993m  582.0577m  117.9447m 
 -411.47475m    3.1606u  699.9993m  581.9163m  118.0861m 
 -411.37475m    3.1793u  699.9993m  581.7749m  118.2276m 
 -411.27475m    3.1981u  699.9993m  581.6335m  118.3690m 
 -411.17475m    3.2171u  699.9993m  581.4921m  118.5104m 
 -411.07475m    3.2361u  699.9993m  581.3507m  118.6518m 
 -410.97475m    3.2553u  699.9993m  581.2093m  118.7932m 
 -410.87475m    3.2746u  699.9993m  581.0679m  118.9346m 
 -410.77475m    3.2940u  699.9993m  580.9265m  119.0761m 
 -410.67475m    3.3135u  699.9993m  580.7851m  119.2175m 
 -410.57475m    3.3331u  699.9993m  580.6437m  119.3589m 
 -410.47475m    3.3529u  699.9993m  580.5023m  119.5003m 
 -410.37475m    3.3728u  699.9993m  580.3609m  119.6417m 
 -410.27475m    3.3928u  699.9993m  580.2195m  119.7831m 
 -410.17475m    3.4129u  699.9993m  580.0781m  119.9246m 
 -410.07475m    3.4331u  699.9992m  579.9367m  120.0660m 
 -409.97475m    3.4535u  699.9992m  579.7953m  120.2074m 
 -409.87475m    3.4740u  699.9992m  579.6539m  120.3488m 
 -409.77475m    3.4946u  699.9992m  579.5125m  120.4902m 
 -409.67475m    3.5153u  699.9992m  579.3711m  120.6316m 
 -409.57475m    3.5361u  699.9992m  579.2297m  120.7731m 
 -409.47475m    3.5571u  699.9992m  579.0883m  120.9145m 
 -409.37475m    3.5782u  699.9992m  578.9469m  121.0559m 
 -409.27475m    3.5995u  699.9992m  578.8055m  121.1973m 
 -409.17475m    3.6208u  699.9992m  578.6641m  121.3387m 
 -409.07475m    3.6423u  699.9992m  578.5227m  121.4801m 
 -408.97475m    3.6639u  699.9992m  578.3813m  121.6216m 
 -408.87475m    3.6857u  699.9992m  578.2399m  121.7630m 
 -408.77475m    3.7075u  699.9992m  578.0985m  121.9044m 
 -408.67475m    3.7295u  699.9992m  577.9571m  122.0458m 
 -408.57475m    3.7517u  699.9992m  577.8157m  122.1872m 
 -408.47475m    3.7740u  699.9992m  577.6743m  122.3286m 
 -408.37475m    3.7964u  699.9992m  577.5329m  122.4701m 
 -408.27475m    3.8189u  699.9992m  577.3915m  122.6115m 
 -408.17475m    3.8416u  699.9992m  577.2501m  122.7529m 
 -408.07475m    3.8644u  699.9992m  577.1087m  122.8943m 
 -407.97475m    3.8874u  699.9992m  576.9673m  123.0357m 
 -407.87475m    3.9104u  699.9991m  576.8259m  123.1771m 
 -407.77475m    3.9337u  699.9991m  576.6845m  123.3186m 
 -407.67475m    3.9570u  699.9991m  576.5431m  123.4600m 
 -407.57475m    3.9806u  699.9991m  576.4017m  123.6014m 
 -407.47475m    4.0042u  699.9991m  576.2603m  123.7428m 
 -407.37475m    4.0280u  699.9991m  576.1189m  123.8842m 
 -407.27475m    4.0519u  699.9991m  575.9775m  124.0256m 
 -407.17475m    4.0760u  699.9991m  575.8361m  124.1671m 
 -407.07475m    4.1002u  699.9991m  575.6947m  124.3085m 
 -406.97475m    4.1246u  699.9991m  575.5533m  124.4499m 
 -406.87475m    4.1491u  699.9991m  575.4119m  124.5913m 
 -406.77475m    4.1738u  699.9991m  575.2705m  124.7327m 
 -406.67475m    4.1986u  699.9991m  575.1291m  124.8741m 
 -406.57475m    4.2236u  699.9991m  574.9877m  125.0156m 
 -406.47475m    4.2487u  699.9991m  574.8463m  125.1570m 
 -406.37475m    4.2740u  699.9991m  574.7050m  125.2984m 
 -406.27475m    4.2994u  699.9991m  574.5636m  125.4398m 
 -406.17475m    4.3250u  699.9991m  574.4222m  125.5812m 
 -406.07475m    4.3507u  699.9991m  574.2808m  125.7226m 
 -405.97475m    4.3766u  699.9990m  574.1394m  125.8641m 
 -405.87475m    4.4026u  699.9990m  573.9980m  126.0055m 
 -405.77475m    4.4288u  699.9990m  573.8566m  126.1469m 
 -405.67475m    4.4552u  699.9990m  573.7152m  126.2883m 
 -405.57475m    4.4817u  699.9990m  573.5738m  126.4297m 
 -405.47475m    4.5083u  699.9990m  573.4324m  126.5711m 
 -405.37475m    4.5352u  699.9990m  573.2910m  126.7126m 
 -405.27475m    4.5622u  699.9990m  573.1496m  126.8540m 
 -405.17475m    4.5893u  699.9990m  573.0082m  126.9954m 
 -405.07475m    4.6167u  699.9990m  572.8668m  127.1368m 
 -404.97475m    4.6441u  699.9990m  572.7254m  127.2782m 
 -404.87475m    4.6718u  699.9990m  572.5840m  127.4196m 
 -404.77475m    4.6996u  699.9990m  572.4426m  127.5610m 
 -404.67475m    4.7276u  699.9990m  572.3012m  127.7025m 
 -404.57475m    4.7558u  699.9990m  572.1598m  127.8439m 
 -404.47475m    4.7841u  699.9990m  572.0185m  127.9853m 
 -404.37475m    4.8126u  699.9990m  571.8771m  128.1267m 
 -404.27475m    4.8413u  699.9990m  571.7357m  128.2681m 
 -404.17475m    4.8701u  699.9989m  571.5943m  128.4095m 
 -404.07475m    4.8991u  699.9989m  571.4529m  128.5510m 
 -403.97475m    4.9283u  699.9989m  571.3115m  128.6924m 
 -403.87475m    4.9577u  699.9989m  571.1701m  128.8338m 
 -403.77475m    4.9872u  699.9989m  571.0287m  128.9752m 
 -403.67475m    5.0169u  699.9989m  570.8873m  129.1166m 
 -403.57475m    5.0468u  699.9989m  570.7459m  129.2580m 
 -403.47475m    5.0769u  699.9989m  570.6045m  129.3994m 
 -403.37475m    5.1072u  699.9989m  570.4631m  129.5409m 
 -403.27475m    5.1376u  699.9989m  570.3218m  129.6823m 
 -403.17475m    5.1683u  699.9989m  570.1804m  129.8237m 
 -403.07475m    5.1991u  699.9989m  570.0390m  129.9651m 
 -402.97475m    5.2301u  699.9989m  569.8976m  130.1065m 
 -402.87475m    5.2613u  699.9989m  569.7562m  130.2479m 
 -402.77475m    5.2927u  699.9989m  569.6148m  130.3893m 
 -402.67475m    5.3242u  699.9988m  569.4734m  130.5308m 
 -402.57475m    5.3560u  699.9988m  569.3320m  130.6722m 
 -402.47475m    5.3880u  699.9988m  569.1906m  130.8136m 
 -402.37475m    5.4201u  699.9988m  569.0492m  130.9550m 
 -402.27475m    5.4524u  699.9988m  568.9079m  131.0964m 
 -402.17475m    5.4850u  699.9988m  568.7665m  131.2378m 
 -402.07475m    5.5177u  699.9988m  568.6251m  131.3792m 
 -401.97475m    5.5506u  699.9988m  568.4837m  131.5207m 
 -401.87475m    5.5838u  699.9988m  568.3423m  131.6621m 
 -401.77475m    5.6171u  699.9988m  568.2009m  131.8035m 
 -401.67475m    5.6506u  699.9988m  568.0595m  131.9449m 
 -401.57475m    5.6844u  699.9988m  567.9181m  132.0863m 
 -401.47475m    5.7183u  699.9988m  567.7768m  132.2277m 
 -401.37475m    5.7524u  699.9988m  567.6354m  132.3691m 
 -401.27475m    5.7868u  699.9988m  567.4940m  132.5106m 
 -401.17475m    5.8214u  699.9987m  567.3526m  132.6520m 
 -401.07475m    5.8561u  699.9987m  567.2112m  132.7934m 
 -400.97475m    5.8911u  699.9987m  567.0698m  132.9348m 
 -400.87475m    5.9263u  699.9987m  566.9284m  133.0762m 
 -400.77475m    5.9617u  699.9987m  566.7870m  133.2176m 
 -400.67475m    5.9973u  699.9987m  566.6457m  133.3590m 
 -400.57475m    6.0331u  699.9987m  566.5043m  133.5005m 
 -400.47475m    6.0692u  699.9987m  566.3629m  133.6419m 
 -400.37475m    6.1055u  699.9987m  566.2215m  133.7833m 
 -400.27475m    6.1420u  699.9987m  566.0801m  133.9247m 
 -400.17475m    6.1787u  699.9987m  565.9387m  134.0661m 
 -400.07475m    6.2156u  699.9987m  565.7973m  134.2075m 
 -399.97475m    6.2528u  699.9987m  565.6560m  134.3489m 
 -399.87475m    6.2901u  699.9986m  565.5146m  134.4904m 
 -399.77475m    6.3277u  699.9986m  565.3732m  134.6318m 
 -399.67475m    6.3656u  699.9986m  565.2318m  134.7732m 
 -399.57475m    6.4036u  699.9986m  565.0904m  134.9146m 
 -399.47475m    6.4419u  699.9986m  564.9490m  135.0560m 
 -399.37475m    6.4805u  699.9986m  564.8077m  135.1974m 
 -399.27475m    6.5192u  699.9986m  564.6663m  135.3388m 
 -399.17475m    6.5582u  699.9986m  564.5249m  135.4803m 
 -399.07475m    6.5975u  699.9986m  564.3835m  135.6217m 
 -398.97475m    6.6369u  699.9986m  564.2421m  135.7631m 
 -398.87475m    6.6766u  699.9986m  564.1008m  135.9045m 
 -398.77475m    6.7166u  699.9986m  563.9594m  136.0459m 
 -398.67475m    6.7568u  699.9985m  563.8180m  136.1873m 
 -398.57475m    6.7972u  699.9985m  563.6766m  136.3287m 
 -398.47475m    6.8379u  699.9985m  563.5352m  136.4701m 
 -398.37475m    6.8788u  699.9985m  563.3938m  136.6116m 
 -398.27475m    6.9200u  699.9985m  563.2525m  136.7530m 
 -398.17475m    6.9614u  699.9985m  563.1111m  136.8944m 
 -398.07475m    7.0031u  699.9985m  562.9697m  137.0358m 
 -397.97475m    7.0450u  699.9985m  562.8283m  137.1772m 
 -397.87475m    7.0872u  699.9985m  562.6870m  137.3186m 
 -397.77475m    7.1297u  699.9985m  562.5456m  137.4600m 
 -397.67475m    7.1724u  699.9985m  562.4042m  137.6014m 
 -397.57475m    7.2153u  699.9985m  562.2628m  137.7429m 
 -397.47475m    7.2585u  699.9984m  562.1214m  137.8843m 
 -397.37475m    7.3020u  699.9984m  561.9801m  138.0257m 
 -397.27475m    7.3458u  699.9984m  561.8387m  138.1671m 
 -397.17475m    7.3898u  699.9984m  561.6973m  138.3085m 
 -397.07475m    7.4340u  699.9984m  561.5559m  138.4499m 
 -396.97475m    7.4786u  699.9984m  561.4145m  138.5913m 
 -396.87475m    7.5234u  699.9984m  561.2732m  138.7327m 
 -396.77475m    7.5685u  699.9984m  561.1318m  138.8742m 
 -396.67475m    7.6139u  699.9984m  560.9904m  139.0156m 
 -396.57475m    7.6595u  699.9984m  560.8490m  139.1570m 
 -396.47475m    7.7054u  699.9984m  560.7077m  139.2984m 
 -396.37475m    7.7516u  699.9983m  560.5663m  139.4398m 
 -396.27475m    7.7981u  699.9983m  560.4249m  139.5812m 
 -396.17475m    7.8448u  699.9983m  560.2835m  139.7226m 
 -396.07475m    7.8919u  699.9983m  560.1422m  139.8640m 
 -395.97475m    7.9392u  699.9983m  560.0008m  140.0054m 
 -395.87475m    7.9868u  699.9983m  559.8594m  140.1469m 
 -395.77475m    8.0347u  699.9983m  559.7180m  140.2883m 
 -395.67475m    8.0829u  699.9983m  559.5767m  140.4297m 
 -395.57475m    8.1314u  699.9983m  559.4353m  140.5711m 
 -395.47475m    8.1802u  699.9983m  559.2939m  140.7125m 
 -395.37475m    8.2293u  699.9982m  559.1526m  140.8539m 
 -395.27475m    8.2787u  699.9982m  559.0112m  140.9953m 
 -395.17475m    8.3284u  699.9982m  558.8698m  141.1367m 
 -395.07475m    8.3783u  699.9982m  558.7284m  141.2781m 
 -394.97475m    8.4286u  699.9982m  558.5871m  141.4196m 
 -394.87475m    8.4792u  699.9982m  558.4457m  141.5610m 
 -394.77475m    8.5301u  699.9982m  558.3043m  141.7024m 
 -394.67475m    8.5813u  699.9982m  558.1630m  141.8438m 
 -394.57475m    8.6328u  699.9982m  558.0216m  141.9852m 
 -394.47475m    8.6847u  699.9981m  557.8802m  142.1266m 
 -394.37475m    8.7368u  699.9981m  557.7389m  142.2680m 
 -394.27475m    8.7893u  699.9981m  557.5975m  142.4094m 
 -394.17475m    8.8421u  699.9981m  557.4561m  142.5508m 
 -394.07475m    8.8952u  699.9981m  557.3147m  142.6923m 
 -393.97475m    8.9486u  699.9981m  557.1734m  142.8337m 
 -393.87475m    9.0024u  699.9981m  557.0320m  142.9751m 
 -393.77475m    9.0565u  699.9981m  556.8906m  143.1165m 
 -393.67475m    9.1109u  699.9981m  556.7493m  143.2579m 
 -393.57475m    9.1656u  699.9980m  556.6079m  143.3993m 
 -393.47475m    9.2207u  699.9980m  556.4665m  143.5407m 
 -393.37475m    9.2761u  699.9980m  556.3252m  143.6821m 
 -393.27475m    9.3319u  699.9980m  556.1838m  143.8235m 
 -393.17475m    9.3880u  699.9980m  556.0424m  143.9649m 
 -393.07475m    9.4444u  699.9980m  555.9011m  144.1064m 
 -392.97475m    9.5012u  699.9980m  555.7597m  144.2478m 
 -392.87475m    9.5583u  699.9980m  555.6184m  144.3892m 
 -392.77475m    9.6158u  699.9980m  555.4770m  144.5306m 
 -392.67475m    9.6736u  699.9979m  555.3356m  144.6720m 
 -392.57475m    9.7317u  699.9979m  555.1943m  144.8134m 
 -392.47475m    9.7903u  699.9979m  555.0529m  144.9548m 
 -392.37475m    9.8492u  699.9979m  554.9115m  145.0962m 
 -392.27475m    9.9084u  699.9979m  554.7702m  145.2376m 
 -392.17475m    9.9680u  699.9979m  554.6288m  145.3790m 
 -392.07475m   10.0280u  699.9979m  554.4875m  145.5204m 
 -391.97475m   10.0883u  699.9979m  554.3461m  145.6619m 
 -391.87475m   10.1490u  699.9978m  554.2047m  145.8033m 
 -391.77475m   10.2101u  699.9978m  554.0634m  145.9447m 
 -391.67475m   10.2715u  699.9978m  553.9220m  146.0861m 
 -391.57475m   10.3333u  699.9978m  553.7807m  146.2275m 
 -391.47475m   10.3955u  699.9978m  553.6393m  146.3689m 
 -391.37475m   10.4581u  699.9978m  553.4979m  146.5103m 
 -391.27475m   10.5211u  699.9978m  553.3566m  146.6517m 
 -391.17475m   10.5844u  699.9978m  553.2152m  146.7931m 
 -391.07475m   10.6481u  699.9977m  553.0739m  146.9345m 
 -390.97475m   10.7123u  699.9977m  552.9325m  147.0759m 
 -390.87475m   10.7768u  699.9977m  552.7911m  147.2173m 
 -390.77475m   10.8417u  699.9977m  552.6498m  147.3588m 
 -390.67475m   10.9070u  699.9977m  552.5084m  147.5002m 
 -390.57475m   10.9727u  699.9977m  552.3671m  147.6416m 
 -390.47475m   11.0388u  699.9977m  552.2257m  147.7830m 
 -390.37475m   11.1053u  699.9977m  552.0844m  147.9244m 
 -390.27475m   11.1722u  699.9976m  551.9430m  148.0658m 
 -390.17475m   11.2395u  699.9976m  551.8017m  148.2072m 
 -390.07475m   11.3072u  699.9976m  551.6603m  148.3486m 
 -389.97475m   11.3753u  699.9976m  551.5190m  148.4900m 
 -389.87475m   11.4439u  699.9976m  551.3776m  148.6314m 
 -389.77475m   11.5129u  699.9976m  551.2362m  148.7728m 
 -389.67475m   11.5823u  699.9976m  551.0949m  148.9142m 
 -389.57475m   11.6521u  699.9975m  550.9535m  149.0556m 
 -389.47475m   11.7223u  699.9975m  550.8122m  149.1971m 
 -389.37475m   11.7930u  699.9975m  550.6708m  149.3385m 
 -389.27475m   11.8641u  699.9975m  550.5295m  149.4799m 
 -389.17475m   11.9357u  699.9975m  550.3881m  149.6213m 
 -389.07475m   12.0076u  699.9975m  550.2468m  149.7627m 
 -388.97475m   12.0801u  699.9975m  550.1054m  149.9041m 
 -388.87475m   12.1529u  699.9974m  549.9641m  150.0455m 
 -388.77475m   12.2262u  699.9974m  549.8227m  150.1869m 
 -388.67475m   12.3000u  699.9974m  549.6814m  150.3283m 
 -388.57475m   12.3742u  699.9974m  549.5401m  150.4697m 
 -388.47475m   12.4489u  699.9974m  549.3987m  150.6111m 
 -388.37475m   12.5240u  699.9974m  549.2574m  150.7525m 
 -388.27475m   12.5996u  699.9973m  549.1160m  150.8939m 
 -388.17475m   12.6756u  699.9973m  548.9747m  151.0353m 
 -388.07475m   12.7521u  699.9973m  548.8333m  151.1767m 
 -387.97475m   12.8291u  699.9973m  548.6920m  151.3181m 
 -387.87475m   12.9065u  699.9973m  548.5506m  151.4596m 
 -387.77475m   12.9844u  699.9973m  548.4093m  151.6010m 
 -387.67475m   13.0628u  699.9972m  548.2679m  151.7424m 
 -387.57475m   13.1417u  699.9972m  548.1266m  151.8838m 
 -387.47475m   13.2211u  699.9972m  547.9853m  152.0252m 
 -387.37475m   13.3009u  699.9972m  547.8439m  152.1666m 
 -387.27475m   13.3812u  699.9972m  547.7026m  152.3080m 
 -387.17475m   13.4621u  699.9972m  547.5612m  152.4494m 
 -387.07475m   13.5434u  699.9972m  547.4199m  152.5908m 
 -386.97475m   13.6252u  699.9971m  547.2786m  152.7322m 
 -386.87475m   13.7075u  699.9971m  547.1372m  152.8736m 
 -386.77475m   13.7903u  699.9971m  546.9959m  153.0150m 
 -386.67475m   13.8736u  699.9971m  546.8545m  153.1564m 
 -386.57475m   13.9575u  699.9971m  546.7132m  153.2978m 
 -386.47475m   14.0418u  699.9971m  546.5719m  153.4392m 
 -386.37475m   14.1267u  699.9970m  546.4305m  153.5806m 
 -386.27475m   14.2121u  699.9970m  546.2892m  153.7220m 
 -386.17475m   14.2980u  699.9970m  546.1479m  153.8634m 
 -386.07475m   14.3844u  699.9970m  546.0065m  154.0048m 
 -385.97475m   14.4714u  699.9970m  545.8652m  154.1462m 
 -385.87475m   14.5589u  699.9969m  545.7239m  154.2876m 
 -385.77475m   14.6469u  699.9969m  545.5825m  154.4290m 
 -385.67475m   14.7355u  699.9969m  545.4412m  154.5705m 
 -385.57475m   14.8246u  699.9969m  545.2999m  154.7119m 
 -385.47475m   14.9143u  699.9969m  545.1585m  154.8533m 
 -385.37475m   15.0045u  699.9969m  545.0172m  154.9947m 
 -385.27475m   15.0953u  699.9968m  544.8759m  155.1361m 
 -385.17475m   15.1866u  699.9968m  544.7345m  155.2775m 
 -385.07475m   15.2785u  699.9968m  544.5932m  155.4189m 
 -384.97475m   15.3709u  699.9968m  544.4519m  155.5603m 
 -384.87475m   15.4639u  699.9968m  544.3106m  155.7017m 
 -384.77475m   15.5575u  699.9967m  544.1692m  155.8431m 
 -384.67475m   15.6517u  699.9967m  544.0279m  155.9845m 
 -384.57475m   15.7464u  699.9967m  543.8866m  156.1259m 
 -384.47475m   15.8417u  699.9967m  543.7452m  156.2673m 
 -384.37475m   15.9376u  699.9967m  543.6039m  156.4087m 
 -384.27475m   16.0341u  699.9966m  543.4626m  156.5501m 
 -384.17475m   16.1312u  699.9966m  543.3213m  156.6915m 
 -384.07475m   16.2289u  699.9966m  543.1799m  156.8329m 
 -383.97475m   16.3271u  699.9966m  543.0386m  156.9743m 
 -383.87475m   16.4260u  699.9966m  542.8973m  157.1157m 
 -383.77475m   16.5255u  699.9965m  542.7560m  157.2571m 
 -383.67475m   16.6256u  699.9965m  542.6147m  157.3985m 
 -383.57475m   16.7263u  699.9965m  542.4733m  157.5399m 
 -383.47475m   16.8277u  699.9965m  542.3320m  157.6813m 
 -383.37475m   16.9296u  699.9965m  542.1907m  157.8227m 
 -383.27475m   17.0322u  699.9964m  542.0494m  157.9641m 
 -383.17475m   17.1354u  699.9964m  541.9081m  158.1055m 
 -383.07475m   17.2392u  699.9964m  541.7667m  158.2469m 
 -382.97475m   17.3437u  699.9964m  541.6254m  158.3883m 
 -382.87475m   17.4488u  699.9964m  541.4841m  158.5297m 
 -382.77475m   17.5546u  699.9963m  541.3428m  158.6711m 
 -382.67475m   17.6610u  699.9963m  541.2015m  158.8125m 
 -382.57475m   17.7681u  699.9963m  541.0602m  158.9539m 
 -382.47475m   17.8758u  699.9963m  540.9189m  159.0953m 
 -382.37475m   17.9842u  699.9963m  540.7775m  159.2367m 
 -382.27475m   18.0933u  699.9962m  540.6362m  159.3781m 
 -382.17475m   18.2030u  699.9962m  540.4949m  159.5195m 
 -382.07475m   18.3134u  699.9962m  540.3536m  159.6609m 
 -381.97475m   18.4245u  699.9962m  540.2123m  159.8023m 
 -381.87475m   18.5362u  699.9961m  540.0710m  159.9437m 
 -381.77475m   18.6487u  699.9961m  539.9297m  160.0851m 
 -381.67475m   18.7618u  699.9961m  539.7884m  160.2265m 
 -381.57475m   18.8757u  699.9961m  539.6471m  160.3679m 
 -381.47475m   18.9902u  699.9960m  539.5058m  160.5093m 
 -381.37475m   19.1054u  699.9960m  539.3644m  160.6507m 
 -381.27475m   19.2214u  699.9960m  539.2231m  160.7921m 
 -381.17475m   19.3381u  699.9960m  539.0818m  160.9335m 
 -381.07475m   19.4554u  699.9960m  538.9405m  161.0749m 
 -380.97475m   19.5735u  699.9959m  538.7992m  161.2163m 
 -380.87475m   19.6924u  699.9959m  538.6579m  161.3577m 
 -380.77475m   19.8119u  699.9959m  538.5166m  161.4991m 
 -380.67475m   19.9322u  699.9959m  538.3753m  161.6405m 
 -380.57475m   20.0533u  699.9958m  538.2340m  161.7819m 
 -380.47475m   20.1750u  699.9958m  538.0927m  161.9233m 
 -380.37475m   20.2976u  699.9958m  537.9514m  162.0647m 
 -380.27475m   20.4209u  699.9958m  537.8101m  162.2061m 
 -380.17475m   20.5449u  699.9957m  537.6688m  162.3475m 
 -380.07475m   20.6697u  699.9957m  537.5275m  162.4888m 
 -379.97475m   20.7953u  699.9957m  537.3862m  162.6302m 
 -379.87475m   20.9216u  699.9957m  537.2449m  162.7716m 
 -379.77475m   21.0488u  699.9956m  537.1036m  162.9130m 
 -379.67475m   21.1767u  699.9956m  536.9624m  163.0544m 
 -379.57475m   21.3054u  699.9956m  536.8211m  163.1958m 
 -379.47475m   21.4349u  699.9956m  536.6798m  163.3372m 
 -379.37475m   21.5652u  699.9955m  536.5385m  163.4786m 
 -379.27475m   21.6962u  699.9955m  536.3972m  163.6200m 
 -379.17475m   21.8281u  699.9955m  536.2559m  163.7614m 
 -379.07475m   21.9608u  699.9954m  536.1146m  163.9028m 
 -378.97475m   22.0944u  699.9954m  535.9733m  164.0442m 
 -378.87475m   22.2287u  699.9954m  535.8320m  164.1856m 
 -378.77475m   22.3639u  699.9954m  535.6907m  164.3270m 
 -378.67475m   22.4999u  699.9953m  535.5495m  164.4684m 
 -378.57475m   22.6368u  699.9953m  535.4082m  164.6098m 
 -378.47475m   22.7745u  699.9953m  535.2669m  164.7512m 
 -378.37475m   22.9130u  699.9953m  535.1256m  164.8926m 
 -378.27475m   23.0524u  699.9952m  534.9843m  165.0340m 
 -378.17475m   23.1927u  699.9952m  534.8430m  165.1753m 
 -378.07475m   23.3338u  699.9952m  534.7018m  165.3167m 
 -377.97475m   23.4758u  699.9951m  534.5605m  165.4581m 
 -377.87475m   23.6186u  699.9951m  534.4192m  165.5995m 
 -377.77475m   23.7624u  699.9951m  534.2779m  165.7409m 
 -377.67475m   23.9070u  699.9951m  534.1367m  165.8823m 
 -377.57475m   24.0525u  699.9950m  533.9954m  166.0237m 
 -377.47475m   24.1990u  699.9950m  533.8541m  166.1651m 
 -377.37475m   24.3463u  699.9950m  533.7128m  166.3065m 
 -377.27475m   24.4945u  699.9949m  533.5716m  166.4479m 
 -377.17475m   24.6437u  699.9949m  533.4303m  166.5893m 
 -377.07475m   24.7938u  699.9949m  533.2890m  166.7307m 
 -376.97475m   24.9448u  699.9949m  533.1477m  166.8721m 
 -376.87475m   25.0967u  699.9948m  533.0065m  167.0134m 
 -376.77475m   25.2496u  699.9948m  532.8652m  167.1548m 
 -376.67475m   25.4034u  699.9948m  532.7239m  167.2962m 
 -376.57475m   25.5581u  699.9947m  532.5827m  167.4376m 
 -376.47475m   25.7138u  699.9947m  532.4414m  167.5790m 
 -376.37475m   25.8705u  699.9947m  532.3001m  167.7204m 
 -376.27475m   26.0282u  699.9946m  532.1589m  167.8618m 
 -376.17475m   26.1868u  699.9946m  532.0176m  168.0032m 
 -376.07475m   26.3464u  699.9946m  531.8764m  168.1446m 
 -375.97475m   26.5070u  699.9945m  531.7351m  168.2860m 
 -375.87475m   26.6685u  699.9945m  531.5938m  168.4273m 
 -375.77475m   26.8311u  699.9945m  531.4526m  168.5687m 
 -375.67475m   26.9947u  699.9944m  531.3113m  168.7101m 
 -375.57475m   27.1593u  699.9944m  531.1701m  168.8515m 
 -375.47475m   27.3249u  699.9944m  531.0288m  168.9929m 
 -375.37475m   27.4915u  699.9943m  530.8875m  169.1343m 
 -375.27475m   27.6592u  699.9943m  530.7463m  169.2757m 
 -375.17475m   27.8279u  699.9943m  530.6050m  169.4171m 
 -375.07475m   27.9976u  699.9942m  530.4638m  169.5584m 
 -374.97475m   28.1684u  699.9942m  530.3225m  169.6998m 
 -374.87475m   28.3402u  699.9942m  530.1813m  169.8412m 
 -374.77475m   28.5131u  699.9941m  530.0400m  169.9826m 
 -374.67475m   28.6871u  699.9941m  529.8988m  170.1240m 
 -374.57475m   28.8621u  699.9941m  529.7575m  170.2654m 
 -374.47475m   29.0383u  699.9940m  529.6163m  170.4068m 
 -374.37475m   29.2155u  699.9940m  529.4751m  170.5482m 
 -374.27475m   29.3938u  699.9940m  529.3338m  170.6895m 
 -374.17475m   29.5732u  699.9939m  529.1926m  170.8309m 
 -374.07475m   29.7538u  699.9939m  529.0513m  170.9723m 
 -373.97475m   29.9354u  699.9939m  528.9101m  171.1137m 
 -373.87475m   30.1182u  699.9938m  528.7689m  171.2551m 
 -373.77475m   30.3021u  699.9938m  528.6276m  171.3965m 
 -373.67475m   30.4871u  699.9937m  528.4864m  171.5378m 
 -373.57475m   30.6733u  699.9937m  528.3451m  171.6792m 
 -373.47475m   30.8606u  699.9937m  528.2039m  171.8206m 
 -373.37475m   31.0491u  699.9936m  528.0627m  171.9620m 
 -373.27475m   31.2388u  699.9936m  527.9214m  172.1034m 
 -373.17475m   31.4296u  699.9936m  527.7802m  172.2448m 
 -373.07475m   31.6216u  699.9935m  527.6390m  172.3862m 
 -372.97475m   31.8148u  699.9935m  527.4978m  172.5275m 
 -372.87475m   32.0092u  699.9934m  527.3565m  172.6689m 
 -372.77475m   32.2048u  699.9934m  527.2153m  172.8103m 
 -372.67475m   32.4016u  699.9934m  527.0741m  172.9517m 
 -372.57475m   32.5997u  699.9933m  526.9329m  173.0931m 
 -372.47475m   32.7989u  699.9933m  526.7916m  173.2344m 
 -372.37475m   32.9994u  699.9932m  526.6504m  173.3758m 
 -372.27475m   33.2012u  699.9932m  526.5092m  173.5172m 
 -372.17475m   33.4041u  699.9932m  526.3680m  173.6586m 
 -372.07475m   33.6084u  699.9931m  526.2268m  173.8000m 
 -371.97475m   33.8139u  699.9931m  526.0855m  173.9414m 
 -371.87475m   34.0207u  699.9930m  525.9443m  174.0827m 
 -371.77475m   34.2287u  699.9930m  525.8031m  174.2241m 
 -371.67475m   34.4381u  699.9930m  525.6619m  174.3655m 
 -371.57475m   34.6487u  699.9929m  525.5207m  174.5069m 
 -371.47475m   34.8607u  699.9929m  525.3795m  174.6483m 
 -371.37475m   35.0740u  699.9928m  525.2383m  174.7896m 
 -371.27475m   35.2885u  699.9928m  525.0971m  174.9310m 
 -371.17475m   35.5045u  699.9927m  524.9559m  175.0724m 
 -371.07475m   35.7217u  699.9927m  524.8147m  175.2138m 
 -370.97475m   35.9403u  699.9927m  524.6735m  175.3551m 
 -370.87475m   36.1603u  699.9926m  524.5323m  175.4965m 
 -370.77475m   36.3816u  699.9926m  524.3911m  175.6379m 
 -370.67475m   36.6043u  699.9925m  524.2499m  175.7793m 
 -370.57475m   36.8284u  699.9925m  524.1087m  175.9207m 
 -370.47475m   37.0539u  699.9924m  523.9675m  176.0620m 
 -370.37475m   37.2807u  699.9924m  523.8263m  176.2034m 
 -370.27475m   37.5090u  699.9924m  523.6851m  176.3448m 
 -370.17475m   37.7387u  699.9923m  523.5439m  176.4862m 
 -370.07475m   37.9698u  699.9923m  523.4027m  176.6275m 
 -369.97475m   38.2024u  699.9922m  523.2615m  176.7689m 
 -369.87475m   38.4364u  699.9922m  523.1203m  176.9103m 
 -369.77475m   38.6718u  699.9921m  522.9791m  177.0517m 
 -369.67475m   38.9087u  699.9921m  522.8379m  177.1930m 
 -369.57475m   39.1471u  699.9920m  522.6968m  177.3344m 
 -369.47475m   39.3869u  699.9920m  522.5556m  177.4758m 
 -369.37475m   39.6283u  699.9919m  522.4144m  177.6172m 
 -369.27475m   39.8711u  699.9919m  522.2732m  177.7585m 
 -369.17475m   40.1155u  699.9918m  522.1320m  177.8999m 
 -369.07475m   40.3613u  699.9918m  521.9909m  178.0413m 
 -368.97475m   40.6087u  699.9917m  521.8497m  178.1827m 
 -368.87475m   40.8577u  699.9917m  521.7085m  178.3240m 
 -368.77475m   41.1081u  699.9916m  521.5674m  178.4654m 
 -368.67475m   41.3602u  699.9916m  521.4262m  178.6068m 
 -368.57475m   41.6138u  699.9915m  521.2850m  178.7481m 
 -368.47475m   41.8689u  699.9915m  521.1439m  178.8895m 
 -368.37475m   42.1257u  699.9914m  521.0027m  179.0309m 
 -368.27475m   42.3840u  699.9914m  520.8615m  179.1723m 
 -368.17475m   42.6440u  699.9913m  520.7204m  179.3136m 
 -368.07475m   42.9056u  699.9913m  520.5792m  179.4550m 
 -367.97475m   43.1688u  699.9912m  520.4380m  179.5964m 
 -367.87475m   43.4336u  699.9912m  520.2969m  179.7377m 
 -367.77475m   43.7001u  699.9911m  520.1557m  179.8791m 
 -367.67475m   43.9682u  699.9911m  520.0146m  180.0205m 
 -367.57475m   44.2380u  699.9910m  519.8734m  180.1618m 
 -367.47475m   44.5095u  699.9910m  519.7323m  180.3032m 
 -367.37475m   44.7827u  699.9909m  519.5911m  180.4446m 
 -367.27475m   45.0575u  699.9909m  519.4500m  180.5859m 
 -367.17475m   45.3341u  699.9908m  519.3088m  180.7273m 
 -367.07475m   45.6124u  699.9908m  519.1677m  180.8687m 
 -366.97475m   45.8924u  699.9907m  519.0266m  181.0100m 
 -366.87475m   46.1742u  699.9906m  518.8854m  181.1514m 
 -366.77475m   46.4577u  699.9906m  518.7443m  181.2928m 
 -366.67475m   46.7430u  699.9905m  518.6031m  181.4341m 
 -366.57475m   47.0301u  699.9905m  518.4620m  181.5755m 
 -366.47475m   47.3189u  699.9904m  518.3209m  181.7169m 
 -366.37475m   47.6095u  699.9904m  518.1797m  181.8582m 
 -366.27475m   47.9020u  699.9903m  518.0386m  181.9996m 
 -366.17475m   48.1963u  699.9903m  517.8975m  182.1410m 
 -366.07475m   48.4924u  699.9902m  517.7564m  182.2823m 
 -365.97475m   48.7903u  699.9901m  517.6152m  182.4237m 
 -365.87475m   49.0901u  699.9901m  517.4741m  182.5650m 
 -365.77475m   49.3917u  699.9900m  517.3330m  182.7064m 
 -365.67475m   49.6953u  699.9900m  517.1919m  182.8478m 
 -365.57475m   50.0007u  699.9899m  517.0508m  182.9891m 
 -365.47475m   50.3080u  699.9898m  516.9097m  183.1305m 
 -365.37475m   50.6173u  699.9898m  516.7685m  183.2719m 
 -365.27475m   50.9285u  699.9897m  516.6274m  183.4132m 
 -365.17475m   51.2416u  699.9897m  516.4863m  183.5546m 
 -365.07475m   51.5566u  699.9896m  516.3452m  183.6959m 
 -364.97475m   51.8736u  699.9895m  516.2041m  183.8373m 
 -364.87475m   52.1926u  699.9895m  516.0630m  183.9787m 
 -364.77475m   52.5136u  699.9894m  515.9219m  184.1200m 
 -364.67475m   52.8366u  699.9893m  515.7808m  184.2614m 
 -364.57475m   53.1616u  699.9893m  515.6397m  184.4027m 
 -364.47475m   53.4886u  699.9892m  515.4986m  184.5441m 
 -364.37475m   53.8176u  699.9891m  515.3575m  184.6854m 
 -364.27475m   54.1487u  699.9891m  515.2164m  184.8268m 
 -364.17475m   54.4819u  699.9890m  515.0753m  184.9682m 
 -364.07475m   54.8171u  699.9890m  514.9343m  185.1095m 
 -363.97475m   55.1545u  699.9889m  514.7932m  185.2509m 
 -363.87475m   55.4939u  699.9888m  514.6521m  185.3922m 
 -363.77475m   55.8355u  699.9888m  514.5110m  185.5336m 
 -363.67475m   56.1791u  699.9887m  514.3699m  185.6749m 
 -363.57475m   56.5250u  699.9886m  514.2289m  185.8163m 
 -363.47475m   56.8729u  699.9886m  514.0878m  185.9576m 
 -363.37475m   57.2231u  699.9885m  513.9467m  186.0990m 
 -363.27475m   57.5754u  699.9884m  513.8056m  186.2403m 
 -363.17475m   57.9299u  699.9883m  513.6646m  186.3817m 
 -363.07475m   58.2867u  699.9883m  513.5235m  186.5230m 
 -362.97475m   58.6456u  699.9882m  513.3825m  186.6644m 
 -362.87475m   59.0068u  699.9881m  513.2414m  186.8057m 
 -362.77475m   59.3703u  699.9881m  513.1003m  186.9471m 
 -362.67475m   59.7360u  699.9880m  512.9593m  187.0884m 
 -362.57475m   60.1040u  699.9879m  512.8182m  187.2298m 
 -362.47475m   60.4743u  699.9879m  512.6772m  187.3711m 
 -362.37475m   60.8469u  699.9878m  512.5361m  187.5125m 
 -362.27475m   61.2218u  699.9877m  512.3951m  187.6538m 
 -362.17475m   61.5991u  699.9876m  512.2540m  187.7952m 
 -362.07475m   61.9787u  699.9876m  512.1130m  187.9365m 
 -361.97475m   62.3607u  699.9875m  511.9720m  188.0779m 
 -361.87475m   62.7451u  699.9874m  511.8309m  188.2192m 
 -361.77475m   63.1319u  699.9873m  511.6899m  188.3606m 
 -361.67475m   63.5211u  699.9873m  511.5489m  188.5019m 
 -361.57475m   63.9127u  699.9872m  511.4078m  188.6433m 
 -361.47475m   64.3067u  699.9871m  511.2668m  188.7846m 
 -361.37475m   64.7033u  699.9870m  511.1258m  188.9260m 
 -361.27475m   65.1023u  699.9870m  510.9847m  189.0673m 
 -361.17475m   65.5038u  699.9869m  510.8437m  189.2086m 
 -361.07475m   65.9078u  699.9868m  510.7027m  189.3500m 
 -360.97475m   66.3143u  699.9867m  510.5617m  189.4913m 
 -360.87475m   66.7233u  699.9866m  510.4207m  189.6327m 
 -360.77475m   67.1350u  699.9866m  510.2797m  189.7740m 
 -360.67475m   67.5492u  699.9865m  510.1387m  189.9154m 
 -360.57475m   67.9659u  699.9864m  509.9977m  190.0567m 
 -360.47475m   68.3853u  699.9863m  509.8567m  190.1980m 
 -360.37475m   68.8073u  699.9862m  509.7157m  190.3394m 
 -360.27475m   69.2319u  699.9861m  509.5747m  190.4807m 
 -360.17475m   69.6592u  699.9861m  509.4337m  190.6221m 
 -360.07475m   70.0892u  699.9860m  509.2927m  190.7634m 
[...]
  469.82525m  700.0000m  112.2146n   35.5667m  664.4334m 
  469.92525m  700.0000m  111.6094n   35.4253m  664.5748m 
  470.02525m  700.0000m  111.0077n   35.2839m  664.7162m 
  470.12525m  700.0000m  110.4095n   35.1425m  664.8576m 
  470.22525m  700.0000m  109.8147n   35.0010m  664.9990m 
  470.32525m  700.0000m  109.2234n   34.8596m  665.1405m 
  470.42525m  700.0000m  108.6354n   34.7182m  665.2819m 
  470.52525m  700.0000m  108.0509n   34.5768m  665.4233m 
  470.62525m  700.0000m  107.4697n   34.4354m  665.5647m 
  470.72525m  700.0000m  106.8919n   34.2939m  665.7061m 
  470.82525m  700.0000m  106.3174n   34.1525m  665.8476m 
  470.92525m  700.0000m  105.7462n   34.0111m  665.9890m 
  471.02525m  700.0000m  105.1782n   33.8697m  666.1304m 
  471.12525m  700.0000m  104.6136n   33.7283m  666.2718m 
  471.22525m  700.0000m  104.0522n   33.5868m  666.4132m 
  471.32525m  700.0000m  103.4941n   33.4454m  666.5547m 
  471.42525m  700.0000m  102.9391n   33.3040m  666.6961m 
  471.52525m  700.0000m  102.3874n   33.1626m  666.8375m 
  471.62525m  700.0000m  101.8388n   33.0211m  666.9789m 
  471.72525m  700.0000m  101.2934n   32.8797m  667.1204m 
  471.82525m  700.0000m  100.7511n   32.7383m  667.2618m 
  471.92525m  700.0000m  100.2119n   32.5969m  667.4032m 
  472.02525m  700.0000m   99.6759n   32.4555m  667.5446m 
  472.12525m  700.0000m   99.1429n   32.3140m  667.6860m 
  472.22525m  700.0000m   98.6130n   32.1726m  667.8275m 
  472.32525m  700.0000m   98.0862n   32.0312m  667.9689m 
  472.42525m  700.0000m   97.5624n   31.8898m  668.1103m 
  472.52525m  700.0000m   97.0416n   31.7484m  668.2517m 
  472.62525m  700.0000m   96.5238n   31.6069m  668.3931m 
  472.72525m  700.0000m   96.0089n   31.4655m  668.5346m 
  472.82525m  700.0000m   95.4971n   31.3241m  668.6760m 
  472.92525m  700.0000m   94.9882n   31.1827m  668.8174m 
  473.02525m  700.0000m   94.4822n   31.0412m  668.9588m 
  473.12525m  700.0000m   93.9791n   30.8998m  669.1002m 
  473.22525m  700.0000m   93.4789n   30.7584m  669.2417m 
  473.32525m  700.0000m   92.9816n   30.6170m  669.3831m 
  473.42525m  700.0000m   92.4872n   30.4756m  669.5245m 
  473.52525m  700.0000m   91.9956n   30.3341m  669.6659m 
  473.62525m  700.0000m   91.5068n   30.1927m  669.8073m 
  473.72525m  700.0000m   91.0209n   30.0513m  669.9488m 
  473.82525m  700.0000m   90.5377n   29.9099m  670.0902m 
  473.92525m  700.0000m   90.0573n   29.7685m  670.2316m 
  474.02525m  700.0000m   89.5797n   29.6270m  670.3730m 
  474.12525m  700.0000m   89.1048n   29.4856m  670.5145m 
  474.22525m  700.0000m   88.6327n   29.3442m  670.6559m 
  474.32525m  700.0000m   88.1632n   29.2028m  670.7973m 
  474.42525m  700.0000m   87.6965n   29.0614m  670.9387m 
  474.52525m  700.0000m   87.2325n   28.9199m  671.0801m 
  474.62525m  700.0000m   86.7711n   28.7785m  671.2216m 
  474.72525m  700.0000m   86.3124n   28.6371m  671.3630m 
  474.82525m  700.0000m   85.8563n   28.4957m  671.5044m 
  474.92525m  700.0000m   85.4028n   28.3542m  671.6458m 
  475.02525m  700.0000m   84.9520n   28.2128m  671.7872m 
  475.12525m  700.0000m   84.5037n   28.0714m  671.9287m 
  475.22525m  700.0000m   84.0580n   27.9300m  672.0701m 
  475.32525m  700.0000m   83.6149n   27.7886m  672.2115m 
  475.42525m  700.0000m   83.1744n   27.6471m  672.3529m 
  475.52525m  700.0000m   82.7363n   27.5057m  672.4943m 
  475.62525m  700.0000m   82.3008n   27.3643m  672.6358m 
  475.72525m  700.0000m   81.8678n   27.2229m  672.7772m 
  475.82525m  700.0000m   81.4372n   27.0815m  672.9186m 
  475.92525m  700.0000m   81.0092n   26.9400m  673.0600m 
  476.02525m  700.0000m   80.5836n   26.7986m  673.2014m 
  476.12525m  700.0000m   80.1604n   26.6572m  673.3429m 
  476.22525m  700.0000m   79.7397n   26.5158m  673.4843m 
  476.32525m  700.0000m   79.3214n   26.3743m  673.6257m 
  476.42525m  700.0000m   78.9055n   26.2329m  673.7671m 
  476.52525m  700.0000m   78.4920n   26.0915m  673.9086m 
  476.62525m  700.0000m   78.0809n   25.9501m  674.0500m 
  476.72525m  700.0000m   77.6721n   25.8087m  674.1914m 
  476.82525m  700.0000m   77.2657n   25.6672m  674.3328m 
  476.92525m  700.0000m   76.8616n   25.5258m  674.4742m 
  477.02525m  700.0000m   76.4599n   25.3844m  674.6157m 
  477.12525m  700.0000m   76.0604n   25.2430m  674.7571m 
  477.22525m  700.0000m   75.6633n   25.1016m  674.8985m 
  477.32525m  700.0000m   75.2684n   24.9601m  675.0399m 
  477.42525m  700.0000m   74.8758n   24.8187m  675.1813m 
  477.52525m  700.0000m   74.4854n   24.6773m  675.3228m 
  477.62525m  700.0000m   74.0973n   24.5359m  675.4642m 
  477.72525m  700.0000m   73.7115n   24.3944m  675.6056m 
  477.82525m  700.0000m   73.3278n   24.2530m  675.7470m 
  477.92525m  700.0000m   72.9463n   24.1116m  675.8884m 
  478.02525m  700.0000m   72.5671n   23.9702m  676.0299m 
  478.12525m  700.0000m   72.1900n   23.8288m  676.1713m 
  478.22525m  700.0000m   71.8151n   23.6873m  676.3127m 
  478.32525m  700.0000m   71.4423n   23.5459m  676.4541m 
  478.42525m  700.0000m   71.0717n   23.4045m  676.5956m 
  478.52525m  700.0000m   70.7032n   23.2631m  676.7370m 
  478.62525m  700.0000m   70.3368n   23.1217m  676.8784m 
  478.72525m  700.0000m   69.9725n   22.9802m  677.0198m 
  478.82525m  700.0000m   69.6103n   22.8388m  677.1612m 
  478.92525m  700.0000m   69.2502n   22.6974m  677.3027m 
  479.02525m  700.0000m   68.8922n   22.5560m  677.4441m 
  479.12525m  700.0000m   68.5362n   22.4146m  677.5855m 
  479.22525m  700.0000m   68.1822n   22.2731m  677.7269m 
  479.32525m  700.0000m   67.8303n   22.1317m  677.8683m 
  479.42525m  700.0000m   67.4804n   21.9903m  678.0098m 
  479.52525m  700.0000m   67.1326n   21.8489m  678.1512m 
  479.62525m  700.0000m   66.7867n   21.7074m  678.2926m 
  479.72525m  700.0000m   66.4428n   21.5660m  678.4340m 
  479.82525m  700.0000m   66.1009n   21.4246m  678.5754m 
  479.92525m  700.0000m   65.7609n   21.2832m  678.7169m 
  480.02525m  700.0000m   65.4229n   21.1418m  678.8583m 
  480.12525m  700.0000m   65.0868n   21.0003m  678.9997m 
  480.22525m  700.0000m   64.7527n   20.8589m  679.1411m 
  480.32525m  700.0000m   64.4205n   20.7175m  679.2826m 
  480.42525m  700.0000m   64.0902n   20.5761m  679.4240m 
  480.52525m  700.0000m   63.7617n   20.4347m  679.5654m 
  480.62525m  700.0000m   63.4352n   20.2932m  679.7068m 
  480.72525m  700.0000m   63.1106n   20.1518m  679.8482m 
  480.82525m  700.0000m   62.7878n   20.0104m  679.9897m 
  480.92525m  700.0000m   62.4668n   19.8690m  680.1311m 
  481.02525m  700.0000m   62.1477n   19.7275m  680.2725m 
  481.12525m  700.0000m   61.8304n   19.5861m  680.4139m 
  481.22525m  700.0000m   61.5150n   19.4447m  680.5553m 
  481.32525m  700.0000m   61.2014n   19.3033m  680.6968m 
  481.42525m  700.0000m   60.8895n   19.1619m  680.8382m 
  481.52525m  700.0000m   60.5795n   19.0204m  680.9796m 
  481.62525m  700.0000m   60.2712n   18.8790m  681.1210m 
  481.72525m  700.0000m   59.9647n   18.7376m  681.2624m 
  481.82525m  700.0000m   59.6599n   18.5962m  681.4039m 
  481.92525m  700.0000m   59.3570n   18.4548m  681.5453m 
  482.02525m  700.0000m   59.0557n   18.3133m  681.6867m 
  482.12525m  700.0000m   58.7562n   18.1719m  681.8281m 
  482.22525m  700.0000m   58.4584n   18.0305m  681.9696m 
  482.32525m  700.0000m   58.1623n   17.8891m  682.1110m 
  482.42525m  700.0000m   57.8678n   17.7476m  682.2524m 
  482.52525m  700.0000m   57.5751n   17.6062m  682.3938m 
  482.62525m  700.0000m   57.2841n   17.4648m  682.5352m 
  482.72525m  700.0000m   56.9947n   17.3234m  682.6767m 
  482.82525m  700.0000m   56.7070n   17.1820m  682.8181m 
  482.92525m  700.0000m   56.4210n   17.0405m  682.9595m 
  483.02525m  700.0000m   56.1366n   16.8991m  683.1009m 
  483.12525m  700.0000m   55.8538n   16.7577m  683.2423m 
  483.22525m  700.0000m   55.5726n   16.6163m  683.3838m 
  483.32525m  700.0000m   55.2931n   16.4749m  683.5252m 
  483.42525m  700.0000m   55.0151n   16.3334m  683.6666m 
  483.52525m  700.0000m   54.7388n   16.1920m  683.8080m 
  483.62525m  700.0000m   54.4640n   16.0506m  683.9494m 
  483.72525m  700.0000m   54.1908n   15.9092m  684.0909m 
  483.82525m  700.0000m   53.9192n   15.7678m  684.2323m 
  483.92525m  700.0000m   53.6491n   15.6263m  684.3737m 
  484.02525m  700.0000m   53.3806n   15.4849m  684.5151m 
  484.12525m  700.0000m   53.1136n   15.3435m  684.6566m 
  484.22525m  700.0000m   52.8482n   15.2021m  684.7980m 
  484.32525m  700.0000m   52.5842n   15.0606m  684.9394m 
  484.42525m  700.0000m   52.3218n   14.9192m  685.0808m 
  484.52525m  700.0000m   52.0609n   14.7778m  685.2222m 
  484.62525m  700.0000m   51.8015n   14.6364m  685.3637m 
  484.72525m  700.0000m   51.5436n   14.4950m  685.5051m 
  484.82525m  700.0000m   51.2871n   14.3535m  685.6465m 
  484.92525m  700.0000m   51.0321n   14.2121m  685.7879m 
  485.02525m  700.0000m   50.7786n   14.0707m  685.9293m 
  485.12525m  700.0000m   50.5266n   13.9293m  686.0708m 
  485.22525m  700.0000m   50.2760n   13.7879m  686.2122m 
  485.32525m  700.0000m   50.0268n   13.6464m  686.3536m 
  485.42525m  700.0000m   49.7790n   13.5050m  686.4950m 
  485.52525m  700.0000m   49.5327n   13.3636m  686.6364m 
  485.62525m  700.0000m   49.2878n   13.2222m  686.7779m 
  485.72525m  700.0000m   49.0443n   13.0807m  686.9193m 
  485.82525m  700.0000m   48.8021n   12.9393m  687.0607m 
  485.92525m  700.0000m   48.5614n   12.7979m  687.2021m 
  486.02525m  700.0000m   48.3221n   12.6565m  687.3436m 
  486.12525m  700.0000m   48.0841n   12.5151m  687.4850m 
  486.22525m  700.0000m   47.8475n   12.3736m  687.6264m 
  486.32525m  700.0000m   47.6122n   12.2322m  687.7678m 
  486.42525m  700.0000m   47.3783n   12.0908m  687.9092m 
  486.52525m  700.0000m   47.1457n   11.9494m  688.0507m 
  486.62525m  700.0000m   46.9145n   11.8080m  688.1921m 
  486.72525m  700.0000m   46.6846n   11.6665m  688.3335m 
  486.82525m  700.0000m   46.4560n   11.5251m  688.4749m 
  486.92525m  700.0000m   46.2287n   11.3837m  688.6163m 
  487.02525m  700.0000m   46.0027n   11.2423m  688.7578m 
  487.12525m  700.0000m   45.7780n   11.1008m  688.8992m 
  487.22525m  700.0000m   45.5546n   10.9594m  689.0406m 
  487.32525m  700.0000m   45.3325n   10.8180m  689.1820m 
  487.42525m  700.0000m   45.1116n   10.6766m  689.3234m 
  487.52525m  700.0000m   44.8921n   10.5352m  689.4649m 
  487.62525m  700.0000m   44.6737n   10.3937m  689.6063m 
  487.72525m  700.0000m   44.4567n   10.2523m  689.7477m 
  487.82525m  700.0000m   44.2408n   10.1109m  689.8891m 
  487.92525m  700.0000m   44.0262n    9.9695m  690.0306m 
  488.02525m  700.0000m   43.8129n    9.8281m  690.1720m 
  488.12525m  700.0000m   43.6007n    9.6866m  690.3134m 
  488.22525m  700.0000m   43.3898n    9.5452m  690.4548m 
  488.32525m  700.0000m   43.1801n    9.4038m  690.5962m 
  488.42525m  700.0000m   42.9716n    9.2624m  690.7377m 
  488.52525m  700.0000m   42.7643n    9.1209m  690.8791m 
  488.62525m  700.0000m   42.5581n    8.9795m  691.0205m 
  488.72525m  700.0000m   42.3532n    8.8381m  691.1619m 
  488.82525m  700.0000m   42.1494n    8.6967m  691.3033m 
  488.92525m  700.0000m   41.9468n    8.5553m  691.4448m 
  489.02525m  700.0000m   41.7453n    8.4138m  691.5862m 
  489.12525m  700.0000m   41.5450n    8.2724m  691.7276m 
  489.22525m  700.0000m   41.3459n    8.1310m  691.8690m 
  489.32525m  700.0000m   41.1479n    7.9896m  692.0105m 
  489.42525m  700.0000m   40.9510n    7.8482m  692.1519m 
  489.52525m  700.0000m   40.7553n    7.7067m  692.2933m 
  489.62525m  700.0000m   40.5606n    7.5653m  692.4347m 
  489.72525m  700.0000m   40.3671n    7.4239m  692.5761m 
  489.82525m  700.0000m   40.1747n    7.2825m  692.7176m 
  489.92525m  700.0000m   39.9834n    7.1411m  692.8590m 
  490.02525m  700.0000m   39.7932n    6.9996m  693.0004m 
  490.12525m  700.0000m   39.6041n    6.8582m  693.1418m 
  490.22525m  700.0000m   39.4161n    6.7168m  693.2832m 
  490.32525m  700.0000m   39.2291n    6.5754m  693.4247m 
  490.42525m  700.0000m   39.0433n    6.4339m  693.5661m 
  490.52525m  700.0000m   38.8584n    6.2925m  693.7075m 
  490.62525m  700.0000m   38.6747n    6.1511m  693.8489m 
  490.72525m  700.0000m   38.4920n    6.0097m  693.9903m 
  490.82525m  700.0000m   38.3103n    5.8683m  694.1318m 
  490.92525m  700.0000m   38.1297n    5.7268m  694.2732m 
  491.02525m  700.0000m   37.9501n    5.5854m  694.4146m 
  491.12525m  700.0000m   37.7716n    5.4440m  694.5560m 
  491.22525m  700.0000m   37.5940n    5.3026m  694.6975m 
  491.32525m  700.0000m   37.4175n    5.1612m  694.8389m 
  491.42525m  700.0000m   37.2420n    5.0197m  694.9803m 
  491.52525m  700.0000m   37.0675n    4.8783m  695.1217m 
  491.62525m  700.0000m   36.8940n    4.7369m  695.2631m 
  491.72525m  700.0000m   36.7215n    4.5955m  695.4046m 
  491.82525m  700.0000m   36.5500n    4.4540m  695.5460m 
  491.92525m  700.0000m   36.3794n    4.3126m  695.6874m 
  492.02525m  700.0000m   36.2099n    4.1712m  695.8288m 
  492.12525m  700.0000m   36.0413n    4.0298m  695.9702m 
  492.22525m  700.0000m   35.8737n    3.8884m  696.1117m 
  492.32525m  700.0000m   35.7070n    3.7469m  696.2531m 
  492.42525m  700.0000m   35.5413n    3.6055m  696.3945m 
  492.52525m  700.0000m   35.3765n    3.4641m  696.5359m 
  492.62525m  700.0000m   35.2127n    3.3227m  696.6773m 
  492.72525m  700.0000m   35.0498n    3.1813m  696.8188m 
  492.82525m  700.0000m   34.8879n    3.0398m  696.9602m 
  492.92525m  700.0000m   34.7269n    2.8984m  697.1016m 
  493.02525m  700.0000m   34.5668n    2.7570m  697.2430m 
  493.12525m  700.0000m   34.4076n    2.6156m  697.3845m 
  493.22525m  700.0000m   34.2493n    2.4741m  697.5259m 
  493.32525m  700.0000m   34.0919n    2.3327m  697.6673m 
  493.42525m  700.0000m   33.9355n    2.1913m  697.8087m 
  493.52525m  700.0000m   33.7799n    2.0499m  697.9501m 
  493.62525m  700.0000m   33.6252n    1.9085m  698.0916m 
  493.72525m  700.0000m   33.4715n    1.7670m  698.2330m 
  493.82525m  700.0000m   33.3185n    1.6256m  698.3744m 
  493.92525m  700.0000m   33.1665n    1.4842m  698.5158m 
  494.02525m  700.0000m   33.0154n    1.3428m  698.6572m 
  494.12525m  700.0000m   32.8651n    1.2014m  698.7987m 
  494.22525m  700.0000m   32.7156n    1.0599m  698.9401m 
  494.32525m  700.0000m   32.5670n  918.5136u  699.0815m 
  494.42525m  700.0000m   32.4193n  777.0923u  699.2229m 
  494.52525m  700.0000m   32.2724n  635.6709u  699.3644m 
  494.62525m  700.0000m   32.1264n  494.2496u  699.5058m 
  494.72525m  700.0000m   31.9812n  352.8283u  699.6472m 
  494.82525m  700.0000m   31.8368n  211.4070u  699.7886m 
  494.92525m  700.0000m   31.6933n   69.9857u  699.9300m 
y
  **warning** (SRAM_SNM_TT.sp:73) Measurement time value specified exceeds analysis limit in measure variable max_1. .measure has been ignored. Enter a valid value in .measure.
 cross_point=-494.9747m
 max_1=   failed    at=-253.0747m
             from=-494.9747m    to= 494.9253m
 max_2=   failed    at= 253.1253m
             from=-494.9747m    to= 494.9253m
 snm=   failed
1****** HSPICE -- Q-2020.03-SP2-2 linux64 (Nov  1 2020) ******                  
 ******  
 .title noise margin in hold operation

 ****** operating point information tnom=  25.000 temp=  25.000 ******
 ****** operating point status is all       simulation time is     0.     
    node    =voltage      node    =voltage      node    =voltage

 +0:bl      = 700.0000m 0:blb     = 700.0000m 0:gl      = 369.3009m
 +0:gr      = 369.3009m 0:q       = 369.3009m 0:qb      = 369.3009m
 +0:u       =   0.      0:v1      = 522.2703m 0:v2      = 522.2703m
 +0:vdd     = 700.0000m 0:wl      =   0.      0:x       = 658.1762m


 **** voltage sources

 subckt                                   
 element  0:vu       0:vvdd     0:vwl     
  volts      0.       700.0000m    0.     
  current    0.      -998.3374n  305.0209f
  power      0.       698.8361n    0.     

     total voltage source power dissipation=  698.8361n       watts



 **** voltage-controlled voltage sources


 subckt                                              
 element  0:eli      0:ev1      0:eri      0:ev2     
  volts    369.3009m  522.2703m  369.3009m  522.2703m
  current   16.1798f    0.        16.1798f    0.     





 **** mosfets


 subckt                                                                    
 element  0:mpr      0:mnr      0:mpl      0:mnl      0:mnpr     0:mnpl    
 model    0:pmos_sra 0:nmos_sra 0:pmos_sra 0:nmos_sra 0:nmos_sra 0:nmos_sra
 region   Subth      Subth      Subth      Subth      Cutoff     Cutoff    
  id      -499.1686n  499.1686n -499.1686n  499.1686n  938.2452a  938.2452a
  ibs        0.         0.         0.         0.         0.         0.     
  ibd        0.         0.         0.         0.         0.         0.     
  vgs     -330.6991m  369.3009m -330.6991m  369.3009m -369.3009m -369.3009m
  vds     -330.6991m  369.3009m -330.6991m  369.3009m  330.6991m  330.6991m
  vbs      -41.8238m  658.1762m  -41.8238m  658.1762m  288.8753m  288.8753m
  vth     -334.7549m  408.4973m -334.7549m  408.4973m  408.7099m  408.7099m
  vdsat    -95.5226m   79.1197m  -95.5226m   79.1197m   70.6690m   70.6690m
  vod        4.0558m  -39.1964m    4.0558m  -39.1964m -778.0108m -778.0108m
  beta       1.6413m    2.1736m    1.6413m    2.1736m    2.1736m    2.1736m
  gam eff    0.         0.         0.         0.         0.         0.     
  gm        12.9907u   15.3998u   12.9907u   15.3998u  8.590e-21  8.590e-21
  gds      301.4608n  239.6269n  301.4608n  239.6269n  228.2566a  228.2566a
  gmb        4.8922p   12.0124p    4.8922p   12.0124p  1.316e-20  1.316e-20
  cdtot     10.1750a   10.2205a   10.1750a   10.2205a   10.2225a   10.2225a
  cgtot     31.2784a   26.1428a   31.2784a   26.1428a   20.4450a   20.4450a
  cstot     17.2863a   14.0661a   17.2863a   14.0661a   10.2225a   10.2225a
  cbtot      0.         0.         0.         0.         0.         0.     
  cgs       21.2138a   15.9421a   21.2138a   15.9421a   10.2225a   10.2225a
  cgd       10.0646a   10.2007a   10.0646a   10.2007a   10.2225a   10.2225a




          ***** job concluded
 ******  
 .title noise margin in hold operation

 ****** job statistics summary tnom=  25.000 temp=  25.000 ******
  
 ******  Machine Information  ******
 CPU:
 model name	: AMD EPYC 7713 64-Core Processor
 cpu MHz	: 2000.000
  
 OS:
 Linux version 3.10.0-1160.88.1.el7.x86_64 (mockbuild@kbuilder.bsys.centos.org) (gcc version 4.8.5 20150623 (Red Hat 4.8.5-44) (GCC) ) #1 SMP Tue Mar 7 15:41:52 UTC 2023


  ******  HSPICE Threads Information  ******

  Command Line Threads Count :     1
  Available CPU Count        :   256
  Actual Threads Count       :     1


  ******  Circuit Statistics  ******
  # nodes       =      13 # elements   =      15
  # resistors   =       0 # capacitors =       2 # inductors   =       0
  # mutual_inds =       0 # vccs       =       0 # vcvs        =       4
  # cccs        =       0 # ccvs       =       0 # volt_srcs   =       3
  # curr_srcs   =       0 # diodes     =       0 # bjts        =       0
  # jfets       =       0 # mosfets    =       6 # U elements  =       0
  # T elements  =       0 # W elements =       0 # B elements  =       0
  # S elements  =       0 # P elements =       0 # va device   =       0
  # vector_srcs =       0 # N elements =       0


  ******  Runtime Statistics (seconds)  ******

  analysis           time    # points   tot. iter  conv.iter
  op point           0.01           1          10
  dc sweep           0.73        9900       29712
  readin             0.01
  errchk             0.00
  setup              0.00
  output             0.00


           peak memory used        406.29 megabytes
           total cpu time            0.82 seconds
           total elapsed time        0.99 seconds
           job started at     22:16:27 03/19/2025
           job ended   at     22:16:28 03/19/2025
           job total runtime         0.99 seconds


 lic: Release hspice token(s) 
 lic: total license checkout elapse time:        0.16(s)
