 ****** HSPICE -- Q-2020.03-SP2-2 linux64 (Nov  1 2020) ******                  
  Copyright (c) 1986 - 2025 by Synopsys, Inc. All Rights Reserved.              
  This software and the associated documentation are proprietary
  to Synopsys, Inc. This software may only be used in accordance
  with the terms and conditions of a written license agreement with
  Synopsys, Inc. All other use, reproduction, or distribution of
  this software is strictly prohibited.
  Input File: SRAM_SNM_TT.sp                                                    
  Command line options: /RAID2/cad/synopsys/hspice/2020.03-sp2-2/hspice/linux64/hspice -i SRAM_SNM_TT.sp -o SRAM_SNM_TT.lis
  Start time: Sun Mar 23 13:40:18 2025
 lic:  
 lic: FLEXlm: SDK_12.6 
 lic: USER:   es25MCS042           HOSTNAME: ee28 
 lic: HOSTID: "d85ed3efc19a"       PID:      127278 
 lic: Using FLEXlm license file: 
 lic: 26585@lshc 
 lic: Checkout 1 hspice 
 lic: License/Maintenance for hspice will expire on 14-may-2025/2024.09 
 lic: 180(in_use)/1100(total) FLOATING license(s) on SERVER 26585@lshc 
 lic:   
  
      
             
 Warning:'Floating bulk' occurs 1 times
 Summary of floating bulk:
 -----------------------
 |Node      |Device    |
 |----------+----------|
 |x         |mpr       |
 -----------------------
              
 *****************************************************************
 ******  option summary
 ******
 runlvl  = 3         bypass  = 2.0000    
 ******
 .title noise margin in hold operation

 ****** dc transfer curves tnom=  25.000 temp=  25.000 ******
x

 volt         voltage    voltage    voltage    voltage   
             q          qb         gl         gr         
 -494.97475m   19.0303n  700.0000m  -17.2580n  700.0000m 
 -494.87475m   19.1017n  700.0000m  141.4040u  699.8586m 
 -494.77475m   19.1736n  700.0000m  282.8253u  699.7172m 
 -494.67475m   19.2458n  700.0000m  424.2466u  699.5758m 
 -494.57475m   19.3185n  700.0000m  565.6679u  699.4343m 
 -494.47475m   19.3916n  700.0000m  707.0892u  699.2929m 
 -494.37475m   19.4652n  700.0000m  848.5105u  699.1515m 
 -494.27475m   19.5391n  700.0000m  989.9317u  699.0101m 
 -494.17475m   19.6135n  700.0000m    1.1314m  698.8686m 
 -494.07475m   19.6883n  700.0000m    1.2728m  698.7272m 
 -493.97475m   19.7635n  700.0000m    1.4142m  698.5858m 
 -493.87475m   19.8392n  700.0000m    1.5556m  698.4444m 
 -493.77475m   19.9153n  700.0000m    1.6970m  698.3030m 
 -493.67475m   19.9919n  700.0000m    1.8385m  698.1615m 
 -493.57475m   20.0689n  700.0000m    1.9799m  698.0201m 
 -493.47475m   20.1463n  700.0000m    2.1213m  697.8787m 
 -493.37475m   20.2242n  700.0000m    2.2627m  697.7373m 
 -493.27475m   20.3025n  700.0000m    2.4041m  697.5959m 
 -493.17475m   20.3813n  700.0000m    2.5456m  697.4544m 
 -493.07475m   20.4606n  700.0000m    2.6870m  697.3130m 
 -492.97475m   20.5403n  700.0000m    2.8284m  697.1716m 
 -492.87475m   20.6204n  700.0000m    2.9698m  697.0302m 
 -492.77475m   20.7010n  700.0000m    3.1113m  696.8888m 
 -492.67475m   20.7821n  700.0000m    3.2527m  696.7473m 
 -492.57475m   20.8637n  700.0000m    3.3941m  696.6059m 
 -492.47475m   20.9457n  700.0000m    3.5355m  696.4645m 
 -492.37475m   21.0282n  700.0000m    3.6769m  696.3231m 
 -492.27475m   21.1112n  700.0000m    3.8184m  696.1816m 
 -492.17475m   21.1947n  700.0000m    3.9598m  696.0402m 
 -492.07475m   21.2786n  700.0000m    4.1012m  695.8988m 
 -491.97475m   21.3631n  700.0000m    4.2426m  695.7574m 
 -491.87475m   21.4480n  700.0000m    4.3840m  695.6160m 
 -491.77475m   21.5334n  700.0000m    4.5255m  695.4745m 
 -491.67475m   21.6193n  700.0000m    4.6669m  695.3331m 
 -491.57475m   21.7057n  700.0000m    4.8083m  695.1917m 
 -491.47475m   21.7926n  700.0000m    4.9497m  695.0503m 
 -491.37475m   21.8800n  700.0000m    5.0911m  694.9089m 
 -491.27475m   21.9679n  700.0000m    5.2326m  694.7674m 
 -491.17475m   22.0563n  700.0000m    5.3740m  694.6260m 
 -491.07475m   22.1453n  700.0000m    5.5154m  694.4846m 
 -490.97475m   22.2347n  700.0000m    5.6568m  694.3432m 
 -490.87475m   22.3247n  700.0000m    5.7983m  694.2017m 
 -490.77475m   22.4151n  700.0000m    5.9397m  694.0603m 
 -490.67475m   22.5061n  700.0000m    6.0811m  693.9189m 
 -490.57475m   22.5977n  700.0000m    6.2225m  693.7775m 
 -490.47475m   22.6897n  700.0000m    6.3639m  693.6361m 
 -490.37475m   22.7823n  700.0000m    6.5054m  693.4946m 
 -490.27475m   22.8754n  700.0000m    6.6468m  693.3532m 
 -490.17475m   22.9691n  700.0000m    6.7882m  693.2118m 
 -490.07475m   23.0633n  700.0000m    6.9296m  693.0704m 
 -489.97475m   23.1580n  700.0000m    7.0710m  692.9290m 
 -489.87475m   23.2533n  700.0000m    7.2125m  692.7875m 
 -489.77475m   23.3492n  700.0000m    7.3539m  692.6461m 
 -489.67475m   23.4456n  700.0000m    7.4953m  692.5047m 
 -489.57475m   23.5425n  700.0000m    7.6367m  692.3633m 
 -489.47475m   23.6400n  700.0000m    7.7782m  692.2218m 
 -489.37475m   23.7381n  700.0000m    7.9196m  692.0804m 
 -489.27475m   23.8367n  700.0000m    8.0610m  691.9390m 
 -489.17475m   23.9360n  700.0000m    8.2024m  691.7976m 
 -489.07475m   24.0357n  700.0000m    8.3438m  691.6562m 
 -488.97475m   24.1361n  700.0000m    8.4853m  691.5147m 
 -488.87475m   24.2370n  700.0000m    8.6267m  691.3733m 
 -488.77475m   24.3386n  700.0000m    8.7681m  691.2319m 
 -488.67475m   24.4407n  700.0000m    8.9095m  691.0905m 
 -488.57475m   24.5434n  700.0000m    9.0509m  690.9491m 
 -488.47475m   24.6467n  700.0000m    9.1924m  690.8076m 
 -488.37475m   24.7506n  700.0000m    9.3338m  690.6662m 
 -488.27475m   24.8551n  700.0000m    9.4752m  690.5248m 
 -488.17475m   24.9601n  700.0000m    9.6166m  690.3834m 
 -488.07475m   25.0658n  700.0000m    9.7581m  690.2420m 
 -487.97475m   25.1722n  700.0000m    9.8995m  690.1005m 
 -487.87475m   25.2791n  700.0000m   10.0409m  689.9591m 
 -487.77475m   25.3866n  700.0000m   10.1823m  689.8177m 
 -487.67475m   25.4948n  700.0000m   10.3237m  689.6763m 
 -487.57475m   25.6036n  700.0000m   10.4652m  689.5348m 
 -487.47475m   25.7130n  700.0000m   10.6066m  689.3934m 
 -487.37475m   25.8230n  700.0000m   10.7480m  689.2520m 
 -487.27475m   25.9337n  700.0000m   10.8894m  689.1106m 
 -487.17475m   26.0451n  700.0000m   11.0308m  688.9692m 
 -487.07475m   26.1570n  700.0000m   11.1723m  688.8277m 
 -486.97475m   26.2696n  700.0000m   11.3137m  688.6863m 
 -486.87475m   26.3829n  700.0000m   11.4551m  688.5449m 
 -486.77475m   26.4968n  700.0000m   11.5965m  688.4035m 
 -486.67475m   26.6114n  700.0000m   11.7379m  688.2621m 
 -486.57475m   26.7266n  700.0000m   11.8794m  688.1206m 
 -486.47475m   26.8425n  700.0000m   12.0208m  687.9792m 
 -486.37475m   26.9591n  700.0000m   12.1622m  687.8378m 
 -486.27475m   27.0764n  700.0000m   12.3036m  687.6964m 
 -486.17475m   27.1943n  700.0000m   12.4451m  687.5549m 
 -486.07475m   27.3129n  700.0000m   12.5865m  687.4135m 
 -485.97475m   27.4322n  700.0000m   12.7279m  687.2721m 
 -485.87475m   27.5522n  700.0000m   12.8693m  687.1307m 
 -485.77475m   27.6728n  700.0000m   13.0107m  686.9893m 
 -485.67475m   27.7942n  700.0000m   13.1522m  686.8478m 
 -485.57475m   27.9163n  700.0000m   13.2936m  686.7064m 
 -485.47475m   28.0390n  700.0000m   13.4350m  686.5650m 
 -485.37475m   28.1625n  700.0000m   13.5764m  686.4236m 
 -485.27475m   28.2867n  700.0000m   13.7178m  686.2822m 
 -485.17475m   28.4116n  700.0000m   13.8593m  686.1407m 
 -485.07475m   28.5373n  700.0000m   14.0007m  685.9993m 
 -484.97475m   28.6636n  700.0000m   14.1421m  685.8579m 
 -484.87475m   28.7907n  700.0000m   14.2835m  685.7165m 
 -484.77475m   28.9185n  700.0000m   14.4250m  685.5751m 
 -484.67475m   29.0471n  700.0000m   14.5664m  685.4336m 
 -484.57475m   29.1764n  700.0000m   14.7078m  685.2922m 
 -484.47475m   29.3065n  700.0000m   14.8492m  685.1508m 
 -484.37475m   29.4373n  700.0000m   14.9906m  685.0094m 
 -484.27475m   29.5688n  700.0000m   15.1321m  684.8679m 
 -484.17475m   29.7011n  700.0000m   15.2735m  684.7265m 
 -484.07475m   29.8342n  700.0000m   15.4149m  684.5851m 
 -483.97475m   29.9681n  700.0000m   15.5563m  684.4437m 
 -483.87475m   30.1027n  700.0000m   15.6977m  684.3023m 
 -483.77475m   30.2381n  700.0000m   15.8392m  684.1608m 
 -483.67475m   30.3743n  700.0000m   15.9806m  684.0194m 
 -483.57475m   30.5113n  700.0000m   16.1220m  683.8780m 
 -483.47475m   30.6490n  700.0000m   16.2634m  683.7366m 
 -483.37475m   30.7876n  700.0000m   16.4048m  683.5952m 
 -483.27475m   30.9270n  700.0000m   16.5463m  683.4537m 
 -483.17475m   31.0671n  700.0000m   16.6877m  683.3123m 
 -483.07475m   31.2081n  700.0000m   16.8291m  683.1709m 
 -482.97475m   31.3499n  700.0000m   16.9705m  683.0295m 
 -482.87475m   31.4925n  700.0000m   17.1120m  682.8880m 
 -482.77475m   31.6359n  700.0000m   17.2534m  682.7466m 
 -482.67475m   31.7802n  700.0000m   17.3948m  682.6052m 
 -482.57475m   31.9253n  700.0000m   17.5362m  682.4638m 
 -482.47475m   32.0712n  700.0000m   17.6776m  682.3224m 
 -482.37475m   32.2180n  700.0000m   17.8191m  682.1809m 
 -482.27475m   32.3656n  700.0000m   17.9605m  682.0395m 
 -482.17475m   32.5141n  700.0000m   18.1019m  681.8981m 
 -482.07475m   32.6634n  700.0000m   18.2433m  681.7567m 
 -481.97475m   32.8136n  700.0000m   18.3847m  681.6153m 
 -481.87475m   32.9647n  700.0000m   18.5262m  681.4738m 
 -481.77475m   33.1166n  700.0000m   18.6676m  681.3324m 
 -481.67475m   33.2694n  700.0000m   18.8090m  681.1910m 
 -481.57475m   33.4231n  700.0000m   18.9504m  681.0496m 
 -481.47475m   33.5777n  700.0000m   19.0919m  680.9082m 
 -481.37475m   33.7332n  700.0000m   19.2333m  680.7667m 
 -481.27475m   33.8895n  700.0000m   19.3747m  680.6253m 
 -481.17475m   34.0468n  700.0000m   19.5161m  680.4839m 
 -481.07475m   34.2050n  700.0000m   19.6575m  680.3425m 
 -480.97475m   34.3641n  700.0000m   19.7990m  680.2010m 
 -480.87475m   34.5241n  700.0000m   19.9404m  680.0596m 
 -480.77475m   34.6851n  700.0000m   20.0818m  679.9182m 
 -480.67475m   34.8470n  700.0000m   20.2232m  679.7768m 
 -480.57475m   35.0098n  700.0000m   20.3646m  679.6354m 
 -480.47475m   35.1735n  700.0000m   20.5061m  679.4939m 
 -480.37475m   35.3382n  700.0000m   20.6475m  679.3525m 
 -480.27475m   35.5039n  700.0000m   20.7889m  679.2111m 
 -480.17475m   35.6705n  700.0000m   20.9303m  679.0697m 
 -480.07475m   35.8381n  700.0000m   21.0717m  678.9283m 
 -479.97475m   36.0066n  700.0000m   21.2132m  678.7868m 
 -479.87475m   36.1761n  700.0000m   21.3546m  678.6454m 
 -479.77475m   36.3466n  700.0000m   21.4960m  678.5040m 
 -479.67475m   36.5181n  700.0000m   21.6374m  678.3626m 
 -479.57475m   36.6905n  700.0000m   21.7789m  678.2211m 
 -479.47475m   36.8640n  700.0000m   21.9203m  678.0797m 
 -479.37475m   37.0385n  700.0000m   22.0617m  677.9383m 
 -479.27475m   37.2140n  700.0000m   22.2031m  677.7969m 
 -479.17475m   37.3905n  700.0000m   22.3445m  677.6555m 
 -479.07475m   37.5680n  700.0000m   22.4860m  677.5140m 
 -478.97475m   37.7465n  700.0000m   22.6274m  677.3726m 
 -478.87475m   37.9261n  700.0000m   22.7688m  677.2312m 
 -478.77475m   38.1067n  700.0000m   22.9102m  677.0898m 
 -478.67475m   38.2883n  700.0000m   23.0516m  676.9484m 
 -478.57475m   38.4710n  700.0000m   23.1931m  676.8069m 
 -478.47475m   38.6548n  700.0000m   23.3345m  676.6655m 
 -478.37475m   38.8396n  700.0000m   23.4759m  676.5241m 
 -478.27475m   39.0255n  700.0000m   23.6173m  676.3827m 
 -478.17475m   39.2125n  700.0000m   23.7588m  676.2413m 
 -478.07475m   39.4005n  700.0000m   23.9002m  676.0998m 
 -477.97475m   39.5896n  700.0000m   24.0416m  675.9584m 
 -477.87475m   39.7799n  700.0000m   24.1830m  675.8170m 
 -477.77475m   39.9712n  700.0000m   24.3244m  675.6756m 
 -477.67475m   40.1636n  700.0000m   24.4659m  675.5341m 
 -477.57475m   40.3572n  700.0000m   24.6073m  675.3927m 
 -477.47475m   40.5518n  700.0000m   24.7487m  675.2513m 
 -477.37475m   40.7476n  700.0000m   24.8901m  675.1099m 
 -477.27475m   40.9445n  700.0000m   25.0315m  674.9685m 
 -477.17475m   41.1426n  700.0000m   25.1730m  674.8270m 
 -477.07475m   41.3418n  700.0000m   25.3144m  674.6856m 
 -476.97475m   41.5422n  700.0000m   25.4558m  674.5442m 
 -476.87475m   41.7437n  700.0000m   25.5972m  674.4028m 
 -476.77475m   41.9464n  700.0000m   25.7386m  674.2614m 
 -476.67475m   42.1502n  700.0000m   25.8801m  674.1199m 
 -476.57475m   42.3552n  700.0000m   26.0215m  673.9785m 
 -476.47475m   42.5615n  700.0000m   26.1629m  673.8371m 
 -476.37475m   42.7689n  700.0000m   26.3043m  673.6957m 
 -476.27475m   42.9775n  700.0000m   26.4458m  673.5542m 
 -476.17475m   43.1873n  700.0000m   26.5872m  673.4128m 
 -476.07475m   43.3983n  700.0000m   26.7286m  673.2714m 
 -475.97475m   43.6106n  700.0000m   26.8700m  673.1300m 
 -475.87475m   43.8240n  700.0000m   27.0114m  672.9886m 
 -475.77475m   44.0388n  700.0000m   27.1529m  672.8471m 
 -475.67475m   44.2547n  700.0000m   27.2943m  672.7057m 
 -475.57475m   44.4719n  700.0000m   27.4357m  672.5643m 
 -475.47475m   44.6904n  700.0000m   27.5771m  672.4229m 
 -475.37475m   44.9101n  700.0000m   27.7185m  672.2815m 
 -475.27475m   45.1311n  700.0000m   27.8600m  672.1400m 
 -475.17475m   45.3534n  700.0000m   28.0014m  671.9986m 
 -475.07475m   45.5769n  700.0000m   28.1428m  671.8572m 
 -474.97475m   45.8018n  700.0000m   28.2842m  671.7158m 
 -474.87475m   46.0280n  700.0000m   28.4256m  671.5744m 
 -474.77475m   46.2554n  700.0000m   28.5671m  671.4329m 
 -474.67475m   46.4842n  700.0000m   28.7085m  671.2915m 
 -474.57475m   46.7143n  700.0000m   28.8499m  671.1501m 
 -474.47475m   46.9457n  700.0000m   28.9913m  671.0087m 
 -474.37475m   47.1785n  700.0000m   29.1328m  670.8672m 
 -474.27475m   47.4126n  700.0000m   29.2742m  670.7258m 
 -474.17475m   47.6481n  700.0000m   29.4156m  670.5844m 
 -474.07475m   47.8850n  700.0000m   29.5570m  670.4430m 
 -473.97475m   48.1232n  700.0000m   29.6984m  670.3016m 
 -473.87475m   48.3628n  700.0000m   29.8399m  670.1601m 
 -473.77475m   48.6037n  700.0000m   29.9813m  670.0187m 
 -473.67475m   48.8461n  700.0000m   30.1227m  669.8773m 
 -473.57475m   49.0899n  700.0000m   30.2641m  669.7359m 
 -473.47475m   49.3351n  700.0000m   30.4055m  669.5945m 
 -473.37475m   49.5817n  700.0000m   30.5470m  669.4530m 
 -473.27475m   49.8297n  700.0000m   30.6884m  669.3116m 
 -473.17475m   50.0792n  700.0000m   30.8298m  669.1702m 
 -473.07475m   50.3301n  700.0000m   30.9712m  669.0288m 
 -472.97475m   50.5824n  700.0000m   31.1127m  668.8874m 
 -472.87475m   50.8363n  700.0000m   31.2541m  668.7459m 
 -472.77475m   51.0916n  700.0000m   31.3955m  668.6045m 
 -472.67475m   51.3483n  700.0000m   31.5369m  668.4631m 
 -472.57475m   51.6066n  700.0000m   31.6783m  668.3217m 
 -472.47475m   51.8663n  700.0000m   31.8198m  668.1802m 
 -472.37475m   52.1276n  700.0000m   31.9612m  668.0388m 
 -472.27475m   52.3904n  700.0000m   32.1026m  667.8974m 
 -472.17475m   52.6547n  700.0000m   32.2440m  667.7560m 
 -472.07475m   52.9205n  700.0000m   32.3854m  667.6146m 
 -471.97475m   53.1879n  700.0000m   32.5269m  667.4731m 
 -471.87475m   53.4568n  700.0000m   32.6683m  667.3317m 
 -471.77475m   53.7272n  700.0000m   32.8097m  667.1903m 
 -471.67475m   53.9993n  699.9999m   32.9511m  667.0489m 
 -471.57475m   54.2729n  699.9999m   33.0925m  666.9075m 
 -471.47475m   54.5481n  699.9999m   33.2340m  666.7660m 
 -471.37475m   54.8249n  699.9999m   33.3754m  666.6246m 
 -471.27475m   55.1033n  699.9999m   33.5168m  666.4832m 
 -471.17475m   55.3833n  699.9999m   33.6582m  666.3418m 
 -471.07475m   55.6649n  699.9999m   33.7997m  666.2004m 
 -470.97475m   55.9482n  699.9999m   33.9411m  666.0589m 
 -470.87475m   56.2331n  699.9999m   34.0825m  665.9175m 
 -470.77475m   56.5196n  699.9999m   34.2239m  665.7761m 
 -470.67475m   56.8079n  699.9999m   34.3653m  665.6347m 
 -470.57475m   57.0977n  699.9999m   34.5068m  665.4932m 
 -470.47475m   57.3893n  699.9999m   34.6482m  665.3518m 
 -470.37475m   57.6826n  699.9999m   34.7896m  665.2104m 
 -470.27475m   57.9775n  699.9999m   34.9310m  665.0690m 
 -470.17475m   58.2742n  699.9999m   35.0724m  664.9276m 
 -470.07475m   58.5725n  699.9999m   35.2139m  664.7861m 
 -469.97475m   58.8727n  699.9999m   35.3553m  664.6447m 
 -469.87475m   59.1745n  699.9999m   35.4967m  664.5033m 
 -469.77475m   59.4781n  699.9999m   35.6381m  664.3619m 
 -469.67475m   59.7835n  699.9999m   35.7795m  664.2205m 
 -469.57475m   60.0906n  699.9999m   35.9210m  664.0790m 
 -469.47475m   60.3995n  699.9999m   36.0624m  663.9376m 
 -469.37475m   60.7102n  699.9999m   36.2038m  663.7962m 
 -469.27475m   61.0227n  699.9999m   36.3452m  663.6548m 
 -469.17475m   61.3370n  699.9999m   36.4867m  663.5134m 
 -469.07475m   61.6531n  699.9999m   36.6281m  663.3719m 
 -468.97475m   61.9711n  699.9999m   36.7695m  663.2305m 
 -468.87475m   62.2909n  699.9999m   36.9109m  663.0891m 
 -468.77475m   62.6126n  699.9999m   37.0523m  662.9477m 
 -468.67475m   62.9361n  699.9999m   37.1938m  662.8062m 
 -468.57475m   63.2615n  699.9999m   37.3352m  662.6648m 
 -468.47475m   63.5888n  699.9999m   37.4766m  662.5234m 
 -468.37475m   63.9180n  699.9999m   37.6180m  662.3820m 
 -468.27475m   64.2491n  699.9999m   37.7594m  662.2406m 
 -468.17475m   64.5821n  699.9999m   37.9009m  662.0991m 
 -468.07475m   64.9171n  699.9999m   38.0423m  661.9577m 
 -467.97475m   65.2540n  699.9999m   38.1837m  661.8163m 
 -467.87475m   65.5928n  699.9999m   38.3251m  661.6749m 
 -467.77475m   65.9336n  699.9999m   38.4665m  661.5335m 
 -467.67475m   66.2764n  699.9999m   38.6080m  661.3920m 
 -467.57475m   66.6212n  699.9999m   38.7494m  661.2506m 
 -467.47475m   66.9680n  699.9999m   38.8908m  661.1092m 
 -467.37475m   67.3168n  699.9999m   39.0322m  660.9678m 
 -467.27475m   67.6676n  699.9999m   39.1737m  660.8264m 
 -467.17475m   68.0204n  699.9999m   39.3151m  660.6849m 
 -467.07475m   68.3753n  699.9999m   39.4565m  660.5435m 
 -466.97475m   68.7323n  699.9999m   39.5979m  660.4021m 
 -466.87475m   69.0913n  699.9999m   39.7393m  660.2607m 
 -466.77475m   69.4524n  699.9999m   39.8808m  660.1192m 
 -466.67475m   69.8156n  699.9999m   40.0222m  659.9778m 
 -466.57475m   70.1809n  699.9999m   40.1636m  659.8364m 
 -466.47475m   70.5483n  699.9999m   40.3050m  659.6950m 
 -466.37475m   70.9179n  699.9999m   40.4464m  659.5536m 
 -466.27475m   71.2896n  699.9999m   40.5879m  659.4121m 
 -466.17475m   71.6635n  699.9999m   40.7293m  659.2707m 
 -466.07475m   72.0395n  699.9999m   40.8707m  659.1293m 
 -465.97475m   72.4177n  699.9999m   41.0121m  658.9879m 
 -465.87475m   72.7982n  699.9999m   41.1535m  658.8465m 
 -465.77475m   73.1808n  699.9999m   41.2950m  658.7050m 
 -465.67475m   73.5656n  699.9999m   41.4364m  658.5636m 
 -465.57475m   73.9527n  699.9999m   41.5778m  658.4222m 
 -465.47475m   74.3420n  699.9999m   41.7192m  658.2808m 
 -465.37475m   74.7336n  699.9999m   41.8607m  658.1394m 
 -465.27475m   75.1275n  699.9999m   42.0021m  657.9979m 
 -465.17475m   75.5236n  699.9999m   42.1435m  657.8565m 
 -465.07475m   75.9221n  699.9999m   42.2849m  657.7151m 
 -464.97475m   76.3228n  699.9999m   42.4263m  657.5737m 
 -464.87475m   76.7259n  699.9999m   42.5678m  657.4322m 
 -464.77475m   77.1313n  699.9999m   42.7092m  657.2908m 
 -464.67475m   77.5391n  699.9999m   42.8506m  657.1494m 
 -464.57475m   77.9493n  699.9999m   42.9920m  657.0080m 
 -464.47475m   78.3618n  699.9999m   43.1334m  656.8666m 
 -464.37475m   78.7767n  699.9999m   43.2749m  656.7251m 
 -464.27475m   79.1941n  699.9999m   43.4163m  656.5837m 
 -464.17475m   79.6139n  699.9999m   43.5577m  656.4423m 
 -464.07475m   80.0361n  699.9999m   43.6991m  656.3009m 
 -463.97475m   80.4607n  699.9999m   43.8405m  656.1595m 
 -463.87475m   80.8878n  699.9999m   43.9820m  656.0180m 
 -463.77475m   81.3174n  699.9999m   44.1234m  655.8766m 
 -463.67475m   81.7495n  699.9999m   44.2648m  655.7352m 
 -463.57475m   82.1841n  699.9999m   44.4062m  655.5938m 
 -463.47475m   82.6213n  699.9999m   44.5477m  655.4524m 
 -463.37475m   83.0610n  699.9999m   44.6891m  655.3109m 
 -463.27475m   83.5032n  699.9999m   44.8305m  655.1695m 
 -463.17475m   83.9480n  699.9999m   44.9719m  655.0281m 
 -463.07475m   84.3954n  699.9999m   45.1133m  654.8867m 
 -462.97475m   84.8454n  699.9999m   45.2548m  654.7453m 
 -462.87475m   85.2980n  699.9999m   45.3962m  654.6038m 
 -462.77475m   85.7532n  699.9999m   45.5376m  654.4624m 
 -462.67475m   86.2111n  699.9999m   45.6790m  654.3210m 
 -462.57475m   86.6716n  699.9999m   45.8204m  654.1796m 
 -462.47475m   87.1348n  699.9999m   45.9619m  654.0381m 
 -462.37475m   87.6007n  699.9999m   46.1033m  653.8967m 
 -462.27475m   88.0694n  699.9999m   46.2447m  653.7553m 
 -462.17475m   88.5407n  699.9999m   46.3861m  653.6139m 
 -462.07475m   89.0148n  699.9999m   46.5275m  653.4725m 
 -461.97475m   89.4916n  699.9999m   46.6690m  653.3310m 
 -461.87475m   89.9713n  699.9999m   46.8104m  653.1896m 
 -461.77475m   90.4537n  699.9999m   46.9518m  653.0482m 
 -461.67475m   90.9389n  699.9999m   47.0932m  652.9068m 
 -461.57475m   91.4269n  699.9999m   47.2346m  652.7654m 
 -461.47475m   91.9178n  699.9999m   47.3761m  652.6239m 
 -461.37475m   92.4115n  699.9999m   47.5175m  652.4825m 
 -461.27475m   92.9081n  699.9999m   47.6589m  652.3411m 
 -461.17475m   93.4076n  699.9999m   47.8003m  652.1997m 
 -461.07475m   93.9100n  699.9999m   47.9418m  652.0583m 
 -460.97475m   94.4153n  699.9999m   48.0832m  651.9168m 
 -460.87475m   94.9235n  699.9999m   48.2246m  651.7754m 
 -460.77475m   95.4347n  699.9999m   48.3660m  651.6340m 
 -460.67475m   95.9489n  699.9999m   48.5074m  651.4926m 
 -460.57475m   96.4661n  699.9999m   48.6489m  651.3511m 
 -460.47475m   96.9863n  699.9999m   48.7903m  651.2097m 
 -460.37475m   97.5095n  699.9999m   48.9317m  651.0683m 
 -460.27475m   98.0357n  699.9999m   49.0731m  650.9269m 
 -460.17475m   98.5650n  699.9999m   49.2145m  650.7855m 
 -460.07475m   99.0974n  699.9999m   49.3560m  650.6440m 
 -459.97475m   99.6329n  699.9999m   49.4974m  650.5026m 
 -459.87475m  100.1715n  699.9999m   49.6388m  650.3612m 
 -459.77475m  100.7133n  699.9999m   49.7802m  650.2198m 
 -459.67475m  101.2582n  699.9999m   49.9216m  650.0784m 
 -459.57475m  101.8063n  699.9999m   50.0631m  649.9369m 
 -459.47475m  102.3575n  699.9999m   50.2045m  649.7955m 
 -459.37475m  102.9120n  699.9999m   50.3459m  649.6541m 
 -459.27475m  103.4697n  699.9999m   50.4873m  649.5127m 
 -459.17475m  104.0307n  699.9999m   50.6287m  649.3713m 
 -459.07475m  104.5949n  699.9999m   50.7702m  649.2298m 
 -458.97475m  105.1624n  699.9999m   50.9116m  649.0884m 
 -458.87475m  105.7332n  699.9999m   51.0530m  648.9470m 
 -458.77475m  106.3073n  699.9999m   51.1944m  648.8056m 
 -458.67475m  106.8848n  699.9999m   51.3359m  648.6642m 
 -458.57475m  107.4656n  699.9999m   51.4773m  648.5227m 
 -458.47475m  108.0498n  699.9999m   51.6187m  648.3813m 
 -458.37475m  108.6374n  699.9999m   51.7601m  648.2399m 
 -458.27475m  109.2285n  699.9999m   51.9015m  648.0985m 
 -458.17475m  109.8230n  699.9999m   52.0430m  647.9571m 
 -458.07475m  110.4209n  699.9999m   52.1844m  647.8156m 
 -457.97475m  111.0223n  699.9999m   52.3258m  647.6742m 
 -457.87475m  111.6273n  699.9999m   52.4672m  647.5328m 
 -457.77475m  112.2357n  699.9999m   52.6086m  647.3914m 
 -457.67475m  112.8478n  699.9999m   52.7501m  647.2499m 
 -457.57475m  113.4633n  699.9999m   52.8915m  647.1085m 
 -457.47475m  114.0825n  699.9999m   53.0329m  646.9671m 
 -457.37475m  114.7052n  699.9999m   53.1743m  646.8257m 
 -457.27475m  115.3316n  699.9999m   53.3157m  646.6843m 
 -457.17475m  115.9617n  699.9999m   53.4572m  646.5428m 
 -457.07475m  116.5954n  699.9999m   53.5986m  646.4014m 
 -456.97475m  117.2328n  699.9999m   53.7400m  646.2600m 
 -456.87475m  117.8739n  699.9999m   53.8814m  646.1186m 
 -456.77475m  118.5188n  699.9999m   54.0228m  645.9772m 
 -456.67475m  119.1674n  699.9999m   54.1643m  645.8357m 
 -456.57475m  119.8198n  699.9999m   54.3057m  645.6943m 
 -456.47475m  120.4760n  699.9999m   54.4471m  645.5529m 
 -456.37475m  121.1361n  699.9999m   54.5885m  645.4115m 
 -456.27475m  121.8000n  699.9999m   54.7300m  645.2701m 
 -456.17475m  122.4677n  699.9999m   54.8714m  645.1286m 
 -456.07475m  123.1394n  699.9999m   55.0128m  644.9872m 
 -455.97475m  123.8149n  699.9999m   55.1542m  644.8458m 
 -455.87475m  124.4944n  699.9999m   55.2956m  644.7044m 
 -455.77475m  125.1779n  699.9999m   55.4371m  644.5630m 
 -455.67475m  125.8654n  699.9999m   55.5785m  644.4215m 
 -455.57475m  126.5568n  699.9999m   55.7199m  644.2801m 
 -455.47475m  127.2523n  699.9999m   55.8613m  644.1387m 
 -455.37475m  127.9519n  699.9999m   56.0027m  643.9973m 
 -455.27475m  128.6555n  699.9999m   56.1442m  643.8559m 
 -455.17475m  129.3632n  699.9999m   56.2856m  643.7144m 
 -455.07475m  130.0751n  699.9999m   56.4270m  643.5730m 
 -454.97475m  130.7911n  699.9999m   56.5684m  643.4316m 
 -454.87475m  131.5113n  699.9999m   56.7098m  643.2902m 
 -454.77475m  132.2357n  699.9999m   56.8513m  643.1487m 
 -454.67475m  132.9643n  699.9999m   56.9927m  643.0073m 
 -454.57475m  133.6972n  699.9999m   57.1341m  642.8659m 
 -454.47475m  134.4344n  699.9999m   57.2755m  642.7245m 
 -454.37475m  135.1758n  699.9999m   57.4169m  642.5831m 
 -454.27475m  135.9216n  699.9999m   57.5584m  642.4416m 
 -454.17475m  136.6718n  699.9999m   57.6998m  642.3002m 
 -454.07475m  137.4263n  699.9999m   57.8412m  642.1588m 
 -453.97475m  138.1852n  699.9999m   57.9826m  642.0174m 
 -453.87475m  138.9486n  699.9999m   58.1240m  641.8760m 
 -453.77475m  139.7164n  699.9999m   58.2655m  641.7345m 
 -453.67475m  140.4887n  699.9999m   58.4069m  641.5931m 
 -453.57475m  141.2655n  699.9999m   58.5483m  641.4517m 
 -453.47475m  142.0468n  699.9999m   58.6897m  641.3103m 
 -453.37475m  142.8327n  699.9999m   58.8312m  641.1689m 
 -453.27475m  143.6232n  699.9999m   58.9726m  641.0274m 
 -453.17475m  144.4183n  699.9999m   59.1140m  640.8860m 
 -453.07475m  145.2180n  699.9999m   59.2554m  640.7446m 
 -452.97475m  146.0225n  699.9999m   59.3968m  640.6032m 
 -452.87475m  146.8316n  699.9999m   59.5383m  640.4618m 
 -452.77475m  147.6454n  699.9999m   59.6797m  640.3203m 
 -452.67475m  148.4640n  699.9999m   59.8211m  640.1789m 
 -452.57475m  149.2874n  699.9999m   59.9625m  640.0375m 
 -452.47475m  150.1156n  699.9999m   60.1039m  639.8961m 
 -452.37475m  150.9486n  699.9999m   60.2454m  639.7547m 
 -452.27475m  151.7865n  699.9999m   60.3868m  639.6132m 
 -452.17475m  152.6293n  699.9999m   60.5282m  639.4718m 
 -452.07475m  153.4770n  699.9999m   60.6696m  639.3304m 
 -451.97475m  154.3297n  699.9999m   60.8110m  639.1890m 
 -451.87475m  155.1874n  699.9999m   60.9525m  639.0476m 
 -451.77475m  156.0500n  699.9999m   61.0939m  638.9061m 
 -451.67475m  156.9177n  699.9999m   61.2353m  638.7647m 
 -451.57475m  157.7905n  699.9999m   61.3767m  638.6233m 
 -451.47475m  158.6684n  699.9999m   61.5181m  638.4819m 
 -451.37475m  159.5514n  699.9999m   61.6596m  638.3404m 
 -451.27475m  160.4396n  699.9999m   61.8010m  638.1990m 
 -451.17475m  161.3330n  699.9999m   61.9424m  638.0576m 
 -451.07475m  162.2316n  699.9999m   62.0838m  637.9162m 
 -450.97475m  163.1354n  699.9999m   62.2252m  637.7748m 
 -450.87475m  164.0445n  699.9998m   62.3667m  637.6333m 
 -450.77475m  164.9590n  699.9998m   62.5081m  637.4919m 
 -450.67475m  165.8788n  699.9998m   62.6495m  637.3505m 
 -450.57475m  166.8039n  699.9998m   62.7909m  637.2091m 
 -450.47475m  167.7345n  699.9998m   62.9323m  637.0677m 
 -450.37475m  168.6706n  699.9998m   63.0738m  636.9262m 
 -450.27475m  169.6121n  699.9998m   63.2152m  636.7848m 
 -450.17475m  170.5591n  699.9998m   63.3566m  636.6434m 
 -450.07475m  171.5116n  699.9998m   63.4980m  636.5020m 
 -449.97475m  172.4697n  699.9998m   63.6395m  636.3606m 
 -449.87475m  173.4335n  699.9998m   63.7809m  636.2191m 
 -449.77475m  174.4028n  699.9998m   63.9223m  636.0777m 
 -449.67475m  175.3779n  699.9998m   64.0637m  635.9363m 
 -449.57475m  176.3586n  699.9998m   64.2051m  635.7949m 
 -449.47475m  177.3451n  699.9998m   64.3466m  635.6535m 
 -449.37475m  178.3373n  699.9998m   64.4880m  635.5120m 
 -449.27475m  179.3354n  699.9998m   64.6294m  635.3706m 
 -449.17475m  180.3393n  699.9998m   64.7708m  635.2292m 
 -449.07475m  181.3491n  699.9998m   64.9122m  635.0878m 
 -448.97475m  182.3648n  699.9998m   65.0537m  634.9464m 
 -448.87475m  183.3864n  699.9998m   65.1951m  634.8049m 
 -448.77475m  184.4140n  699.9998m   65.3365m  634.6635m 
 -448.67475m  185.4477n  699.9998m   65.4779m  634.5221m 
 -448.57475m  186.4873n  699.9998m   65.6193m  634.3807m 
 -448.47475m  187.5331n  699.9998m   65.7608m  634.2393m 
 -448.37475m  188.5850n  699.9998m   65.9022m  634.0978m 
 -448.27475m  189.6431n  699.9998m   66.0436m  633.9564m 
 -448.17475m  190.7073n  699.9998m   66.1850m  633.8150m 
 -448.07475m  191.7778n  699.9998m   66.3264m  633.6736m 
 -447.97475m  192.8545n  699.9998m   66.4679m  633.5322m 
 -447.87475m  193.9376n  699.9998m   66.6093m  633.3907m 
 -447.77475m  195.0270n  699.9998m   66.7507m  633.2493m 
 -447.67475m  196.1228n  699.9998m   66.8921m  633.1079m 
 -447.57475m  197.2250n  699.9998m   67.0335m  632.9665m 
 -447.47475m  198.3336n  699.9998m   67.1750m  632.8251m 
 -447.37475m  199.4488n  699.9998m   67.3164m  632.6836m 
 -447.27475m  200.5705n  699.9998m   67.4578m  632.5422m 
 -447.17475m  201.6987n  699.9998m   67.5992m  632.4008m 
 -447.07475m  202.8336n  699.9998m   67.7406m  632.2594m 
 -446.97475m  203.9751n  699.9998m   67.8821m  632.1180m 
 -446.87475m  205.1234n  699.9998m   68.0235m  631.9765m 
 -446.77475m  206.2783n  699.9998m   68.1649m  631.8351m 
 -446.67475m  207.4400n  699.9998m   68.3063m  631.6937m 
 -446.57475m  208.6085n  699.9998m   68.4477m  631.5523m 
 -446.47475m  209.7839n  699.9998m   68.5892m  631.4109m 
 -446.37475m  210.9662n  699.9998m   68.7306m  631.2694m 
 -446.27475m  212.1553n  699.9998m   68.8720m  631.1280m 
 -446.17475m  213.3515n  699.9998m   69.0134m  630.9866m 
 -446.07475m  214.5547n  699.9998m   69.1548m  630.8452m 
 -445.97475m  215.7649n  699.9998m   69.2963m  630.7038m 
 -445.87475m  216.9822n  699.9998m   69.4377m  630.5623m 
 -445.77475m  218.2067n  699.9998m   69.5791m  630.4209m 
 -445.67475m  219.4383n  699.9998m   69.7205m  630.2795m 
 -445.57475m  220.6772n  699.9998m   69.8619m  630.1381m 
 -445.47475m  221.9233n  699.9998m   70.0034m  629.9967m 
 -445.37475m  223.1768n  699.9998m   70.1448m  629.8552m 
 -445.27475m  224.4376n  699.9998m   70.2862m  629.7138m 
 -445.17475m  225.7058n  699.9998m   70.4276m  629.5724m 
 -445.07475m  226.9814n  699.9998m   70.5690m  629.4310m 
 -444.97475m  228.2645n  699.9998m   70.7105m  629.2896m 
 -444.87475m  229.5552n  699.9998m   70.8519m  629.1481m 
 -444.77475m  230.8534n  699.9998m   70.9933m  629.0067m 
 -444.67475m  232.1592n  699.9998m   71.1347m  628.8653m 
 -444.57475m  233.4727n  699.9998m   71.2762m  628.7239m 
 -444.47475m  234.7939n  699.9998m   71.4176m  628.5824m 
 -444.37475m  236.1229n  699.9998m   71.5590m  628.4410m 
 -444.27475m  237.4597n  699.9998m   71.7004m  628.2996m 
 -444.17475m  238.8043n  699.9998m   71.8418m  628.1582m 
 -444.07475m  240.1568n  699.9998m   71.9833m  628.0168m 
 -443.97475m  241.5172n  699.9998m   72.1247m  627.8753m 
 -443.87475m  242.8856n  699.9998m   72.2661m  627.7339m 
 -443.77475m  244.2621n  699.9998m   72.4075m  627.5925m 
 -443.67475m  245.6466n  699.9998m   72.5489m  627.4511m 
 -443.57475m  247.0393n  699.9998m   72.6904m  627.3097m 
 -443.47475m  248.4402n  699.9998m   72.8318m  627.1682m 
 -443.37475m  249.8492n  699.9998m   72.9732m  627.0268m 
 -443.27475m  251.2666n  699.9998m   73.1146m  626.8854m 
 -443.17475m  252.6923n  699.9998m   73.2560m  626.7440m 
 -443.07475m  254.1263n  699.9998m   73.3975m  626.6026m 
 -442.97475m  255.5688n  699.9998m   73.5389m  626.4612m 
 -442.87475m  257.0197n  699.9998m   73.6803m  626.3197m 
 -442.77475m  258.4792n  699.9998m   73.8217m  626.1783m 
 -442.67475m  259.9472n  699.9998m   73.9631m  626.0369m 
 -442.57475m  261.4239n  699.9998m   74.1046m  625.8955m 
 -442.47475m  262.9093n  699.9998m   74.2460m  625.7541m 
 -442.37475m  264.4033n  699.9998m   74.3874m  625.6126m 
 -442.27475m  265.9062n  699.9998m   74.5288m  625.4712m 
 -442.17475m  267.4179n  699.9998m   74.6702m  625.3298m 
 -442.07475m  268.9384n  699.9998m   74.8117m  625.1884m 
 -441.97475m  270.4679n  699.9998m   74.9531m  625.0470m 
 -441.87475m  272.0064n  699.9998m   75.0945m  624.9055m 
 -441.77475m  273.5540n  699.9998m   75.2359m  624.7641m 
 -441.67475m  275.1106n  699.9997m   75.3773m  624.6227m 
 -441.57475m  276.6764n  699.9997m   75.5188m  624.4813m 
 -441.47475m  278.2514n  699.9997m   75.6602m  624.3399m 
 -441.37475m  279.8356n  699.9997m   75.8016m  624.1984m 
 -441.27475m  281.4292n  699.9997m   75.9430m  624.0570m 
 -441.17475m  283.0322n  699.9997m   76.0844m  623.9156m 
 -441.07475m  284.6445n  699.9997m   76.2259m  623.7742m 
 -440.97475m  286.2664n  699.9997m   76.3673m  623.6328m 
 -440.87475m  287.8978n  699.9997m   76.5087m  623.4913m 
 -440.77475m  289.5387n  699.9997m   76.6501m  623.3499m 
 -440.67475m  291.1894n  699.9997m   76.7915m  623.2085m 
 -440.57475m  292.8497n  699.9997m   76.9330m  623.0671m 
 -440.47475m  294.5198n  699.9997m   77.0744m  622.9257m 
 -440.37475m  296.1998n  699.9997m   77.2158m  622.7842m 
 -440.27475m  297.8896n  699.9997m   77.3572m  622.6428m 
 -440.17475m  299.5894n  699.9997m   77.4986m  622.5014m 
 -440.07475m  301.2991n  699.9997m   77.6401m  622.3600m 
 -439.97475m  303.0189n  699.9997m   77.7815m  622.2186m 
 -439.87475m  304.7489n  699.9997m   77.9229m  622.0771m 
 -439.77475m  306.4890n  699.9997m   78.0643m  621.9357m 
 -439.67475m  308.2394n  699.9997m   78.2057m  621.7943m 
 -439.57475m  310.0001n  699.9997m   78.3471m  621.6529m 
 -439.47475m  311.7711n  699.9997m   78.4886m  621.5115m 
 -439.37475m  313.5526n  699.9997m   78.6300m  621.3700m 
 -439.27475m  315.3445n  699.9997m   78.7714m  621.2286m 
 -439.17475m  317.1470n  699.9997m   78.9128m  621.0872m 
 -439.07475m  318.9602n  699.9997m   79.0542m  620.9458m 
 -438.97475m  320.7839n  699.9997m   79.1957m  620.8044m 
 -438.87475m  322.6185n  699.9997m   79.3371m  620.6629m 
 -438.77475m  324.4638n  699.9997m   79.4785m  620.5215m 
 -438.67475m  326.3200n  699.9997m   79.6199m  620.3801m 
 -438.57475m  328.1872n  699.9997m   79.7613m  620.2387m 
 -438.47475m  330.0653n  699.9997m   79.9028m  620.0973m 
 -438.37475m  331.9545n  699.9997m   80.0442m  619.9558m 
 -438.27475m  333.8548n  699.9997m   80.1856m  619.8144m 
 -438.17475m  335.7663n  699.9997m   80.3270m  619.6730m 
 -438.07475m  337.6891n  699.9997m   80.4684m  619.5316m 
 -437.97475m  339.6232n  699.9997m   80.6099m  619.3902m 
 -437.87475m  341.5687n  699.9997m   80.7513m  619.2487m 
 -437.77475m  343.5257n  699.9997m   80.8927m  619.1073m 
 -437.67475m  345.4942n  699.9997m   81.0341m  618.9659m 
 -437.57475m  347.4743n  699.9997m   81.1755m  618.8245m 
 -437.47475m  349.4661n  699.9997m   81.3170m  618.6831m 
 -437.37475m  351.4696n  699.9997m   81.4584m  618.5417m 
 -437.27475m  353.4850n  699.9997m   81.5998m  618.4002m 
 -437.17475m  355.5122n  699.9997m   81.7412m  618.2588m 
 -437.07475m  357.5513n  699.9997m   81.8826m  618.1174m 
 -436.97475m  359.6025n  699.9997m   82.0241m  617.9760m 
 -436.87475m  361.6658n  699.9997m   82.1655m  617.8346m 
 -436.77475m  363.7412n  699.9997m   82.3069m  617.6931m 
 -436.67475m  365.8289n  699.9997m   82.4483m  617.5517m 
 -436.57475m  367.9289n  699.9997m   82.5897m  617.4103m 
 -436.47475m  370.0413n  699.9997m   82.7312m  617.2689m 
 -436.37475m  372.1661n  699.9997m   82.8726m  617.1275m 
 -436.27475m  374.3035n  699.9997m   83.0140m  616.9860m 
 -436.17475m  376.4535n  699.9997m   83.1554m  616.8446m 
 -436.07475m  378.6162n  699.9997m   83.2968m  616.7032m 
 -435.97475m  380.7916n  699.9997m   83.4383m  616.5618m 
 -435.87475m  382.9798n  699.9997m   83.5797m  616.4204m 
 -435.77475m  385.1810n  699.9997m   83.7211m  616.2789m 
 -435.67475m  387.3952n  699.9996m   83.8625m  616.1375m 
 -435.57475m  389.6224n  699.9996m   84.0039m  615.9961m 
 -435.47475m  391.8628n  699.9996m   84.1454m  615.8547m 
 -435.37475m  394.1164n  699.9996m   84.2868m  615.7133m 
 -435.27475m  396.3832n  699.9996m   84.4282m  615.5718m 
 -435.17475m  398.6635n  699.9996m   84.5696m  615.4304m 
 -435.07475m  400.9572n  699.9996m   84.7110m  615.2890m 
 -434.97475m  403.2645n  699.9996m   84.8524m  615.1476m 
 -434.87475m  405.5854n  699.9996m   84.9939m  615.0062m 
 -434.77475m  407.9200n  699.9996m   85.1353m  614.8648m 
 -434.67475m  410.2684n  699.9996m   85.2767m  614.7233m 
 -434.57475m  412.6307n  699.9996m   85.4181m  614.5819m 
 -434.47475m  415.0069n  699.9996m   85.5595m  614.4405m 
 -434.37475m  417.3971n  699.9996m   85.7010m  614.2991m 
 -434.27475m  419.8014n  699.9996m   85.8424m  614.1577m 
 -434.17475m  422.2200n  699.9996m   85.9838m  614.0162m 
 -434.07475m  424.6528n  699.9996m   86.1252m  613.8748m 
 -433.97475m  427.1000n  699.9996m   86.2666m  613.7334m 
 -433.87475m  429.5617n  699.9996m   86.4081m  613.5920m 
 -433.77475m  432.0379n  699.9996m   86.5495m  613.4506m 
 -433.67475m  434.5288n  699.9996m   86.6909m  613.3091m 
 -433.57475m  437.0343n  699.9996m   86.8323m  613.1677m 
 -433.47475m  439.5547n  699.9996m   86.9737m  613.0263m 
 -433.37475m  442.0899n  699.9996m   87.1152m  612.8849m 
 -433.27475m  444.6402n  699.9996m   87.2566m  612.7435m 
 -433.17475m  447.2055n  699.9996m   87.3980m  612.6020m 
 -433.07475m  449.7860n  699.9996m   87.5394m  612.4606m 
 -432.97475m  452.3817n  699.9996m   87.6808m  612.3192m 
 -432.87475m  454.9928n  699.9996m   87.8223m  612.1778m 
 -432.77475m  457.6193n  699.9996m   87.9637m  612.0364m 
 -432.67475m  460.2614n  699.9996m   88.1051m  611.8950m 
 -432.57475m  462.9190n  699.9996m   88.2465m  611.7535m 
 -432.47475m  465.5924n  699.9996m   88.3879m  611.6121m 
 -432.37475m  468.2816n  699.9996m   88.5293m  611.4707m 
 -432.27475m  470.9867n  699.9996m   88.6708m  611.3293m 
 -432.17475m  473.7078n  699.9996m   88.8122m  611.1879m 
 -432.07475m  476.4450n  699.9996m   88.9536m  611.0464m 
 -431.97475m  479.1984n  699.9996m   89.0950m  610.9050m 
 -431.87475m  481.9680n  699.9996m   89.2364m  610.7636m 
 -431.77475m  484.7541n  699.9996m   89.3779m  610.6222m 
 -431.67475m  487.5566n  699.9996m   89.5193m  610.4808m 
 -431.57475m  490.3757n  699.9996m   89.6607m  610.3394m 
 -431.47475m  493.2115n  699.9996m   89.8021m  610.1979m 
 -431.37475m  496.0641n  699.9996m   89.9435m  610.0565m 
 -431.27475m  498.9336n  699.9996m   90.0850m  609.9151m 
 -431.17475m  501.8200n  699.9995m   90.2264m  609.7737m 
 -431.07475m  504.7235n  699.9995m   90.3678m  609.6323m 
 -430.97475m  507.6443n  699.9995m   90.5092m  609.4908m 
 -430.87475m  510.5823n  699.9995m   90.6506m  609.3494m 
 -430.77475m  513.5377n  699.9995m   90.7920m  609.2080m 
 -430.67475m  516.5106n  699.9995m   90.9335m  609.0666m 
 -430.57475m  519.5011n  699.9995m   91.0749m  608.9252m 
 -430.47475m  522.5093n  699.9995m   91.2163m  608.7837m 
 -430.37475m  525.5353n  699.9995m   91.3577m  608.6423m 
 -430.27475m  528.5792n  699.9995m   91.4991m  608.5009m 
 -430.17475m  531.6412n  699.9995m   91.6406m  608.3595m 
 -430.07475m  534.7213n  699.9995m   91.7820m  608.2181m 
 -429.97475m  537.8196n  699.9995m   91.9234m  608.0767m 
 -429.87475m  540.9363n  699.9995m   92.0648m  607.9352m 
 -429.77475m  544.0715n  699.9995m   92.2062m  607.7938m 
 -429.67475m  547.2252n  699.9995m   92.3477m  607.6524m 
 -429.57475m  550.3976n  699.9995m   92.4891m  607.5110m 
 -429.47475m  553.5888n  699.9995m   92.6305m  607.3696m 
 -429.37475m  556.7990n  699.9995m   92.7719m  607.2281m 
 -429.27475m  560.0281n  699.9995m   92.9133m  607.0867m 
 -429.17475m  563.2764n  699.9995m   93.0547m  606.9453m 
 -429.07475m  566.5439n  699.9995m   93.1962m  606.8039m 
 -428.97475m  569.8309n  699.9995m   93.3376m  606.6625m 
 -428.87475m  573.1372n  699.9995m   93.4790m  606.5211m 
 -428.77475m  576.4632n  699.9995m   93.6204m  606.3796m 
 -428.67475m  579.8089n  699.9995m   93.7618m  606.2382m 
 -428.57475m  583.1745n  699.9995m   93.9033m  606.0968m 
 -428.47475m  586.5600n  699.9995m   94.0447m  605.9554m 
 -428.37475m  589.9656n  699.9995m   94.1861m  605.8140m 
 -428.27475m  593.3913n  699.9995m   94.3275m  605.6725m 
 -428.17475m  596.8374n  699.9995m   94.4689m  605.5311m 
 -428.07475m  600.3040n  699.9995m   94.6103m  605.3897m 
 -427.97475m  603.7910n  699.9995m   94.7518m  605.2483m 
 -427.87475m  607.2988n  699.9995m   94.8932m  605.1069m 
 -427.77475m  610.8274n  699.9995m   95.0346m  604.9655m 
 -427.67475m  614.3769n  699.9995m   95.1760m  604.8240m 
 -427.57475m  617.9475n  699.9994m   95.3174m  604.6826m 
 -427.47475m  621.5393n  699.9994m   95.4589m  604.5412m 
 -427.37475m  625.1523n  699.9994m   95.6003m  604.3998m 
 -427.27475m  628.7868n  699.9994m   95.7417m  604.2584m 
 -427.17475m  632.4429n  699.9994m   95.8831m  604.1170m 
 -427.07475m  636.1207n  699.9994m   96.0245m  603.9755m 
 -426.97475m  639.8203n  699.9994m   96.1660m  603.8341m 
 -426.87475m  643.5419n  699.9994m   96.3074m  603.6927m 
 -426.77475m  647.2856n  699.9994m   96.4488m  603.5513m 
 -426.67475m  651.0514n  699.9994m   96.5902m  603.4099m 
 -426.57475m  654.8397n  699.9994m   96.7316m  603.2684m 
 -426.47475m  658.6504n  699.9994m   96.8730m  603.1270m 
 -426.37475m  662.4838n  699.9994m   97.0145m  602.9856m 
 -426.27475m  666.3399n  699.9994m   97.1559m  602.8442m 
 -426.17475m  670.2190n  699.9994m   97.2973m  602.7028m 
 -426.07475m  674.1211n  699.9994m   97.4387m  602.5614m 
 -425.97475m  678.0463n  699.9994m   97.5801m  602.4199m 
 -425.87475m  681.9949n  699.9994m   97.7215m  602.2785m 
 -425.77475m  685.9669n  699.9994m   97.8630m  602.1371m 
 -425.67475m  689.9625n  699.9994m   98.0044m  601.9957m 
 -425.57475m  693.9819n  699.9994m   98.1458m  601.8543m 
 -425.47475m  698.0251n  699.9994m   98.2872m  601.7129m 
 -425.37475m  702.0924n  699.9994m   98.4286m  601.5714m 
 -425.27475m  706.1838n  699.9994m   98.5701m  601.4300m 
 -425.17475m  710.2996n  699.9994m   98.7115m  601.2886m 
 -425.07475m  714.4398n  699.9994m   98.8529m  601.1472m 
 -424.97475m  718.6046n  699.9994m   98.9943m  601.0058m 
 -424.87475m  722.7942n  699.9994m   99.1357m  600.8644m 
 -424.77475m  727.0087n  699.9994m   99.2771m  600.7229m 
 -424.67475m  731.2482n  699.9993m   99.4186m  600.5815m 
 -424.57475m  735.5130n  699.9993m   99.5600m  600.4401m 
 -424.47475m  739.8031n  699.9993m   99.7014m  600.2987m 
 -424.37475m  744.1187n  699.9993m   99.8428m  600.1573m 
 -424.27475m  748.4600n  699.9993m   99.9842m  600.0158m 
 -424.17475m  752.8271n  699.9993m  100.1256m  599.8744m 
 -424.07475m  757.2202n  699.9993m  100.2671m  599.7330m 
 -423.97475m  761.6394n  699.9993m  100.4085m  599.5916m 
 -423.87475m  766.0849n  699.9993m  100.5499m  599.4502m 
 -423.77475m  770.5568n  699.9993m  100.6913m  599.3088m 
 -423.67475m  775.0554n  699.9993m  100.8327m  599.1673m 
 -423.57475m  779.5807n  699.9993m  100.9742m  599.0259m 
 -423.47475m  784.1329n  699.9993m  101.1156m  598.8845m 
 -423.37475m  788.7123n  699.9993m  101.2570m  598.7431m 
 -423.27475m  793.3188n  699.9993m  101.3984m  598.6017m 
 -423.17475m  797.9528n  699.9993m  101.5398m  598.4603m 
 -423.07475m  802.6144n  699.9993m  101.6812m  598.3188m 
 -422.97475m  807.3038n  699.9993m  101.8227m  598.1774m 
 -422.87475m  812.0210n  699.9993m  101.9641m  598.0360m 
 -422.77475m  816.7663n  699.9993m  102.1055m  597.8946m 
 -422.67475m  821.5399n  699.9993m  102.2469m  597.7532m 
 -422.57475m  826.3419n  699.9993m  102.3883m  597.6118m 
 -422.47475m  831.1725n  699.9993m  102.5297m  597.4703m 
 -422.37475m  836.0318n  699.9993m  102.6712m  597.3289m 
 -422.27475m  840.9201n  699.9993m  102.8126m  597.1875m 
 -422.17475m  845.8376n  699.9992m  102.9540m  597.0461m 
 -422.07475m  850.7843n  699.9992m  103.0954m  596.9047m 
 -421.97475m  855.7604n  699.9992m  103.2368m  596.7633m 
 -421.87475m  860.7662n  699.9992m  103.3782m  596.6218m 
 -421.77475m  865.8019n  699.9992m  103.5197m  596.4804m 
 -421.67475m  870.8675n  699.9992m  103.6611m  596.3390m 
 -421.57475m  875.9633n  699.9992m  103.8025m  596.1976m 
 -421.47475m  881.0895n  699.9992m  103.9439m  596.0562m 
 -421.37475m  886.2463n  699.9992m  104.0853m  595.9148m 
 -421.27475m  891.4337n  699.9992m  104.2267m  595.7734m 
 -421.17475m  896.6521n  699.9992m  104.3682m  595.6319m 
 -421.07475m  901.9016n  699.9992m  104.5096m  595.4905m 
 -420.97475m  907.1824n  699.9992m  104.6510m  595.3491m 
 -420.87475m  912.4947n  699.9992m  104.7924m  595.2077m 
 -420.77475m  917.8386n  699.9992m  104.9338m  595.0663m 
 -420.67475m  923.2144n  699.9992m  105.0752m  594.9249m 
 -420.57475m  928.6222n  699.9992m  105.2167m  594.7834m 
 -420.47475m  934.0624n  699.9992m  105.3581m  594.6420m 
 -420.37475m  939.5349n  699.9992m  105.4995m  594.5006m 
 -420.27475m  945.0401n  699.9992m  105.6409m  594.3592m 
 -420.17475m  950.5781n  699.9992m  105.7823m  594.2178m 
 -420.07475m  956.1492n  699.9992m  105.9237m  594.0764m 
 -419.97475m  961.7535n  699.9991m  106.0652m  593.9349m 
 -419.87475m  967.3912n  699.9991m  106.2066m  593.7935m 
 -419.77475m  973.0625n  699.9991m  106.3480m  593.6521m 
 -419.67475m  978.7677n  699.9991m  106.4894m  593.5107m 
 -419.57475m  984.5070n  699.9991m  106.6308m  593.3693m 
 -419.47475m  990.2805n  699.9991m  106.7722m  593.2279m 
 -419.37475m  996.0884n  699.9991m  106.9137m  593.0865m 
 -419.27475m    1.0019u  699.9991m  107.0551m  592.9450m 
 -419.17475m    1.0078u  699.9991m  107.1965m  592.8036m 
 -419.07475m    1.0137u  699.9991m  107.3379m  592.6622m 
 -418.97475m    1.0197u  699.9991m  107.4793m  592.5208m 
 -418.87475m    1.0257u  699.9991m  107.6207m  592.3794m 
 -418.77475m    1.0317u  699.9991m  107.7622m  592.2380m 
 -418.67475m    1.0377u  699.9991m  107.9036m  592.0965m 
 -418.57475m    1.0438u  699.9991m  108.0450m  591.9551m 
 -418.47475m    1.0499u  699.9991m  108.1864m  591.8137m 
 -418.37475m    1.0561u  699.9991m  108.3278m  591.6723m 
 -418.27475m    1.0623u  699.9991m  108.4692m  591.5309m 
 -418.17475m    1.0685u  699.9991m  108.6107m  591.3895m 
 -418.07475m    1.0748u  699.9991m  108.7521m  591.2481m 
 -417.97475m    1.0811u  699.9990m  108.8935m  591.1066m 
 -417.87475m    1.0875u  699.9990m  109.0349m  590.9652m 
 -417.77475m    1.0939u  699.9990m  109.1763m  590.8238m 
 -417.67475m    1.1003u  699.9990m  109.3177m  590.6824m 
 -417.57475m    1.1068u  699.9990m  109.4592m  590.5410m 
 -417.47475m    1.1133u  699.9990m  109.6006m  590.3996m 
 -417.37475m    1.1198u  699.9990m  109.7420m  590.2581m 
 -417.27475m    1.1264u  699.9990m  109.8834m  590.1167m 
 -417.17475m    1.1330u  699.9990m  110.0248m  589.9753m 
 -417.07475m    1.1397u  699.9990m  110.1662m  589.8339m 
 -416.97475m    1.1464u  699.9990m  110.3076m  589.6925m 
 -416.87475m    1.1531u  699.9990m  110.4491m  589.5511m 
 -416.77475m    1.1599u  699.9990m  110.5905m  589.4097m 
 -416.67475m    1.1667u  699.9990m  110.7319m  589.2682m 
 -416.57475m    1.1736u  699.9990m  110.8733m  589.1268m 
 -416.47475m    1.1805u  699.9990m  111.0147m  588.9854m 
 -416.37475m    1.1874u  699.9990m  111.1561m  588.8440m 
 -416.27475m    1.1944u  699.9989m  111.2976m  588.7026m 
 -416.17475m    1.2014u  699.9989m  111.4390m  588.5612m 
 -416.07475m    1.2085u  699.9989m  111.5804m  588.4198m 
 -415.97475m    1.2156u  699.9989m  111.7218m  588.2783m 
 -415.87475m    1.2228u  699.9989m  111.8632m  588.1369m 
 -415.77475m    1.2300u  699.9989m  112.0046m  587.9955m 
 -415.67475m    1.2372u  699.9989m  112.1460m  587.8541m 
 -415.57475m    1.2445u  699.9989m  112.2875m  587.7127m 
 -415.47475m    1.2518u  699.9989m  112.4289m  587.5713m 
 -415.37475m    1.2592u  699.9989m  112.5703m  587.4299m 
 -415.27475m    1.2666u  699.9989m  112.7117m  587.2884m 
 -415.17475m    1.2741u  699.9989m  112.8531m  587.1470m 
 -415.07475m    1.2816u  699.9989m  112.9945m  587.0056m 
 -414.97475m    1.2891u  699.9989m  113.1360m  586.8642m 
 -414.87475m    1.2967u  699.9989m  113.2774m  586.7228m 
 -414.77475m    1.3044u  699.9989m  113.4188m  586.5814m 
 -414.67475m    1.3121u  699.9988m  113.5602m  586.4400m 
 -414.57475m    1.3198u  699.9988m  113.7016m  586.2985m 
 -414.47475m    1.3276u  699.9988m  113.8430m  586.1571m 
 -414.37475m    1.3354u  699.9988m  113.9844m  586.0157m 
 -414.27475m    1.3433u  699.9988m  114.1259m  585.8743m 
 -414.17475m    1.3512u  699.9988m  114.2673m  585.7329m 
 -414.07475m    1.3591u  699.9988m  114.4087m  585.5915m 
 -413.97475m    1.3672u  699.9988m  114.5501m  585.4501m 
 -413.87475m    1.3752u  699.9988m  114.6915m  585.3087m 
 -413.77475m    1.3833u  699.9988m  114.8329m  585.1672m 
 -413.67475m    1.3915u  699.9988m  114.9743m  585.0258m 
 -413.57475m    1.3997u  699.9988m  115.1158m  584.8844m 
 -413.47475m    1.4080u  699.9988m  115.2572m  584.7430m 
 -413.37475m    1.4163u  699.9988m  115.3986m  584.6016m 
 -413.27475m    1.4246u  699.9988m  115.5400m  584.4602m 
 -413.17475m    1.4330u  699.9987m  115.6814m  584.3188m 
 -413.07475m    1.4415u  699.9987m  115.8228m  584.1774m 
 -412.97475m    1.4500u  699.9987m  115.9642m  584.0359m 
 -412.87475m    1.4585u  699.9987m  116.1057m  583.8945m 
 -412.77475m    1.4672u  699.9987m  116.2471m  583.7531m 
 -412.67475m    1.4758u  699.9987m  116.3885m  583.6117m 
 -412.57475m    1.4845u  699.9987m  116.5299m  583.4703m 
 -412.47475m    1.4933u  699.9987m  116.6713m  583.3289m 
 -412.37475m    1.5021u  699.9987m  116.8127m  583.1875m 
 -412.27475m    1.5110u  699.9987m  116.9541m  583.0460m 
 -412.17475m    1.5199u  699.9987m  117.0956m  582.9046m 
 -412.07475m    1.5289u  699.9987m  117.2370m  582.7632m 
 -411.97475m    1.5379u  699.9987m  117.3784m  582.6218m 
 -411.87475m    1.5470u  699.9986m  117.5198m  582.4804m 
 -411.77475m    1.5562u  699.9986m  117.6612m  582.3390m 
 -411.67475m    1.5653u  699.9986m  117.8026m  582.1976m 
 -411.57475m    1.5746u  699.9986m  117.9440m  582.0562m 
 -411.47475m    1.5839u  699.9986m  118.0854m  581.9148m 
 -411.37475m    1.5933u  699.9986m  118.2269m  581.7733m 
 -411.27475m    1.6027u  699.9986m  118.3683m  581.6319m 
 -411.17475m    1.6122u  699.9986m  118.5097m  581.4905m 
 -411.07475m    1.6217u  699.9986m  118.6511m  581.3491m 
 -410.97475m    1.6313u  699.9986m  118.7925m  581.2077m 
 -410.87475m    1.6409u  699.9986m  118.9339m  581.0663m 
 -410.77475m    1.6506u  699.9986m  119.0753m  580.9249m 
 -410.67475m    1.6604u  699.9985m  119.2168m  580.7835m 
 -410.57475m    1.6702u  699.9985m  119.3582m  580.6420m 
 -410.47475m    1.6801u  699.9985m  119.4996m  580.5006m 
 -410.37475m    1.6900u  699.9985m  119.6410m  580.3592m 
 -410.27475m    1.7000u  699.9985m  119.7824m  580.2178m 
 -410.17475m    1.7101u  699.9985m  119.9238m  580.0764m 
 -410.07475m    1.7202u  699.9985m  120.0652m  579.9350m 
 -409.97475m    1.7304u  699.9985m  120.2066m  579.7936m 
 -409.87475m    1.7406u  699.9985m  120.3481m  579.6522m 
 -409.77475m    1.7510u  699.9985m  120.4895m  579.5108m 
 -409.67475m    1.7613u  699.9985m  120.6309m  579.3693m 
 -409.57475m    1.7717u  699.9985m  120.7723m  579.2279m 
 -409.47475m    1.7822u  699.9984m  120.9137m  579.0865m 
 -409.37475m    1.7928u  699.9984m  121.0551m  578.9451m 
 -409.27475m    1.8034u  699.9984m  121.1965m  578.8037m 
 -409.17475m    1.8141u  699.9984m  121.3379m  578.6623m 
 -409.07475m    1.8248u  699.9984m  121.4794m  578.5209m 
 -408.97475m    1.8357u  699.9984m  121.6208m  578.3795m 
 -408.87475m    1.8465u  699.9984m  121.7622m  578.2381m 
 -408.77475m    1.8575u  699.9984m  121.9036m  578.0966m 
 -408.67475m    1.8685u  699.9984m  122.0450m  577.9552m 
 -408.57475m    1.8795u  699.9984m  122.1864m  577.8138m 
 -408.47475m    1.8907u  699.9984m  122.3278m  577.6724m 
 -408.37475m    1.9019u  699.9983m  122.4692m  577.5310m 
 -408.27475m    1.9132u  699.9983m  122.6107m  577.3896m 
 -408.17475m    1.9245u  699.9983m  122.7521m  577.2482m 
 -408.07475m    1.9359u  699.9983m  122.8935m  577.1068m 
 -407.97475m    1.9474u  699.9983m  123.0349m  576.9654m 
 -407.87475m    1.9589u  699.9983m  123.1763m  576.8240m 
 -407.77475m    1.9706u  699.9983m  123.3177m  576.6825m 
 -407.67475m    1.9823u  699.9983m  123.4591m  576.5411m 
 -407.57475m    1.9940u  699.9983m  123.6005m  576.3997m 
 -407.47475m    2.0058u  699.9983m  123.7419m  576.2583m 
 -407.37475m    2.0177u  699.9982m  123.8834m  576.1169m 
 -407.27475m    2.0297u  699.9982m  124.0248m  575.9755m 
 -407.17475m    2.0418u  699.9982m  124.1662m  575.8341m 
 -407.07475m    2.0539u  699.9982m  124.3076m  575.6927m 
 -406.97475m    2.0661u  699.9982m  124.4490m  575.5513m 
 -406.87475m    2.0783u  699.9982m  124.5904m  575.4099m 
 -406.77475m    2.0907u  699.9982m  124.7318m  575.2685m 
 -406.67475m    2.1031u  699.9982m  124.8732m  575.1270m 
 -406.57475m    2.1156u  699.9982m  125.0146m  574.9856m 
 -406.47475m    2.1281u  699.9982m  125.1561m  574.8442m 
 -406.37475m    2.1408u  699.9981m  125.2975m  574.7028m 
 -406.27475m    2.1535u  699.9981m  125.4389m  574.5614m 
 -406.17475m    2.1663u  699.9981m  125.5803m  574.4200m 
 -406.07475m    2.1791u  699.9981m  125.7217m  574.2786m 
 -405.97475m    2.1921u  699.9981m  125.8631m  574.1372m 
 -405.87475m    2.2051u  699.9981m  126.0045m  573.9958m 
 -405.77475m    2.2182u  699.9981m  126.1459m  573.8544m 
 -405.67475m    2.2314u  699.9981m  126.2873m  573.7130m 
 -405.57475m    2.2446u  699.9981m  126.4287m  573.5716m 
 -405.47475m    2.2580u  699.9980m  126.5702m  573.4301m 
 -405.37475m    2.2714u  699.9980m  126.7116m  573.2887m 
 -405.27475m    2.2849u  699.9980m  126.8530m  573.1473m 
 -405.17475m    2.2985u  699.9980m  126.9944m  573.0059m 
 -405.07475m    2.3121u  699.9980m  127.1358m  572.8645m 
 -404.97475m    2.3259u  699.9980m  127.2772m  572.7231m 
 -404.87475m    2.3397u  699.9980m  127.4186m  572.5817m 
 -404.77475m    2.3536u  699.9980m  127.5600m  572.4403m 
 -404.67475m    2.3676u  699.9980m  127.7014m  572.2989m 
 -404.57475m    2.3817u  699.9979m  127.8428m  572.1575m 
 -404.47475m    2.3959u  699.9979m  127.9843m  572.0161m 
 -404.37475m    2.4101u  699.9979m  128.1257m  571.8747m 
 -404.27475m    2.4245u  699.9979m  128.2671m  571.7333m 
 -404.17475m    2.4389u  699.9979m  128.4085m  571.5918m 
 -404.07475m    2.4534u  699.9979m  128.5499m  571.4504m 
 -403.97475m    2.4680u  699.9979m  128.6913m  571.3090m 
 -403.87475m    2.4827u  699.9979m  128.8327m  571.1676m 
 -403.77475m    2.4975u  699.9978m  128.9741m  571.0262m 
 -403.67475m    2.5123u  699.9978m  129.1155m  570.8848m 
 -403.57475m    2.5273u  699.9978m  129.2569m  570.7434m 
 -403.47475m    2.5423u  699.9978m  129.3983m  570.6020m 
 -403.37475m    2.5575u  699.9978m  129.5398m  570.4606m 
 -403.27475m    2.5727u  699.9978m  129.6812m  570.3192m 
 -403.17475m    2.5880u  699.9978m  129.8226m  570.1778m 
 -403.07475m    2.6035u  699.9978m  129.9640m  570.0364m 
 -402.97475m    2.6190u  699.9977m  130.1054m  569.8950m 
 -402.87475m    2.6346u  699.9977m  130.2468m  569.7536m 
 -402.77475m    2.6503u  699.9977m  130.3882m  569.6122m 
 -402.67475m    2.6660u  699.9977m  130.5296m  569.4708m 
 -402.57475m    2.6819u  699.9977m  130.6710m  569.3293m 
 -402.47475m    2.6979u  699.9977m  130.8124m  569.1879m 
 -402.37475m    2.7140u  699.9977m  130.9538m  569.0465m 
 -402.27475m    2.7302u  699.9976m  131.0952m  568.9051m 
 -402.17475m    2.7464u  699.9976m  131.2367m  568.7637m 
 -402.07475m    2.7628u  699.9976m  131.3781m  568.6223m 
 -401.97475m    2.7793u  699.9976m  131.5195m  568.4809m 
 -401.87475m    2.7958u  699.9976m  131.6609m  568.3395m 
 -401.77475m    2.8125u  699.9976m  131.8023m  568.1981m 
 -401.67475m    2.8293u  699.9976m  131.9437m  568.0567m 
 -401.57475m    2.8462u  699.9975m  132.0851m  567.9153m 
 -401.47475m    2.8631u  699.9975m  132.2265m  567.7739m 
 -401.37475m    2.8802u  699.9975m  132.3679m  567.6325m 
 -401.27475m    2.8974u  699.9975m  132.5093m  567.4911m 
 -401.17475m    2.9147u  699.9975m  132.6507m  567.3497m 
 -401.07475m    2.9321u  699.9975m  132.7921m  567.2083m 
 -400.97475m    2.9496u  699.9975m  132.9335m  567.0669m 
 -400.87475m    2.9672u  699.9974m  133.0749m  566.9255m 
 -400.77475m    2.9849u  699.9974m  133.2164m  566.7841m 
 -400.67475m    3.0027u  699.9974m  133.3578m  566.6427m 
 -400.57475m    3.0206u  699.9974m  133.4992m  566.5013m 
 -400.47475m    3.0386u  699.9974m  133.6406m  566.3599m 
 -400.37475m    3.0568u  699.9974m  133.7820m  566.2185m 
 -400.27475m    3.0750u  699.9974m  133.9234m  566.0771m 
 -400.17475m    3.0934u  699.9973m  134.0648m  565.9356m 
 -400.07475m    3.1119u  699.9973m  134.2062m  565.7942m 
 -399.97475m    3.1304u  699.9973m  134.3476m  565.6528m 
 -399.87475m    3.1491u  699.9973m  134.4890m  565.5114m 
 -399.77475m    3.1680u  699.9973m  134.6304m  565.3700m 
 -399.67475m    3.1869u  699.9973m  134.7718m  565.2286m 
 -399.57475m    3.2059u  699.9972m  134.9132m  565.0872m 
 -399.47475m    3.2251u  699.9972m  135.0546m  564.9458m 
 -399.37475m    3.2443u  699.9972m  135.1960m  564.8044m 
 -399.27475m    3.2637u  699.9972m  135.3374m  564.6630m 
 -399.17475m    3.2832u  699.9972m  135.4788m  564.5216m 
 -399.07475m    3.3029u  699.9972m  135.6202m  564.3802m 
 -398.97475m    3.3226u  699.9972m  135.7617m  564.2388m 
 -398.87475m    3.3425u  699.9971m  135.9031m  564.0974m 
 -398.77475m    3.3624u  699.9971m  136.0445m  563.9560m 
 -398.67475m    3.3825u  699.9971m  136.1859m  563.8146m 
 -398.57475m    3.4028u  699.9971m  136.3273m  563.6732m 
 -398.47475m    3.4231u  699.9971m  136.4687m  563.5318m 
 -398.37475m    3.4436u  699.9970m  136.6101m  563.3904m 
 -398.27475m    3.4642u  699.9970m  136.7515m  563.2490m 
 -398.17475m    3.4849u  699.9970m  136.8929m  563.1076m 
 -398.07475m    3.5057u  699.9970m  137.0343m  562.9662m 
 -397.97475m    3.5267u  699.9970m  137.1757m  562.8248m 
 -397.87475m    3.5478u  699.9970m  137.3171m  562.6834m 
 -397.77475m    3.5690u  699.9969m  137.4585m  562.5420m 
 -397.67475m    3.5904u  699.9969m  137.5999m  562.4006m 
 -397.57475m    3.6119u  699.9969m  137.7413m  562.2592m 
 -397.47475m    3.6335u  699.9969m  137.8827m  562.1178m 
 -397.37475m    3.6553u  699.9969m  138.0241m  561.9764m 
 -397.27475m    3.6771u  699.9969m  138.1655m  561.8350m 
 -397.17475m    3.6992u  699.9968m  138.3069m  561.6936m 
 -397.07475m    3.7213u  699.9968m  138.4483m  561.5522m 
 -396.97475m    3.7436u  699.9968m  138.5897m  561.4108m 
 -396.87475m    3.7660u  699.9968m  138.7311m  561.2694m 
 -396.77475m    3.7886u  699.9968m  138.8725m  561.1280m 
 -396.67475m    3.8112u  699.9967m  139.0139m  560.9866m 
 -396.57475m    3.8341u  699.9967m  139.1553m  560.8452m 
 -396.47475m    3.8570u  699.9967m  139.2967m  560.7038m 
 -396.37475m    3.8801u  699.9967m  139.4381m  560.5624m 
 -396.27475m    3.9034u  699.9967m  139.5795m  560.4210m 
 -396.17475m    3.9268u  699.9966m  139.7209m  560.2796m 
 -396.07475m    3.9503u  699.9966m  139.8623m  560.1382m 
 -395.97475m    3.9740u  699.9966m  140.0038m  559.9968m 
 -395.87475m    3.9978u  699.9966m  140.1452m  559.8554m 
 -395.77475m    4.0218u  699.9966m  140.2866m  559.7140m 
 -395.67475m    4.0459u  699.9965m  140.4280m  559.5726m 
 -395.57475m    4.0701u  699.9965m  140.5694m  559.4312m 
 -395.47475m    4.0945u  699.9965m  140.7108m  559.2898m 
 -395.37475m    4.1191u  699.9965m  140.8522m  559.1484m 
 -395.27475m    4.1438u  699.9965m  140.9936m  559.0071m 
 -395.17475m    4.1686u  699.9964m  141.1350m  558.8657m 
 -395.07475m    4.1936u  699.9964m  141.2764m  558.7243m 
 -394.97475m    4.2188u  699.9964m  141.4178m  558.5829m 
 -394.87475m    4.2441u  699.9964m  141.5592m  558.4415m 
 -394.77475m    4.2695u  699.9964m  141.7006m  558.3001m 
 -394.67475m    4.2952u  699.9963m  141.8420m  558.1587m 
 -394.57475m    4.3209u  699.9963m  141.9834m  558.0173m 
 -394.47475m    4.3469u  699.9963m  142.1248m  557.8759m 
 -394.37475m    4.3729u  699.9963m  142.2662m  557.7345m 
 -394.27475m    4.3992u  699.9963m  142.4076m  557.5931m 
 -394.17475m    4.4256u  699.9962m  142.5490m  557.4517m 
 -394.07475m    4.4522u  699.9962m  142.6904m  557.3103m 
 -393.97475m    4.4789u  699.9962m  142.8318m  557.1689m 
 -393.87475m    4.5058u  699.9962m  142.9732m  557.0275m 
 -393.77475m    4.5328u  699.9961m  143.1146m  556.8861m 
 -393.67475m    4.5601u  699.9961m  143.2560m  556.7447m 
 -393.57475m    4.5874u  699.9961m  143.3974m  556.6033m 
 -393.47475m    4.6150u  699.9961m  143.5388m  556.4619m 
 -393.37475m    4.6427u  699.9961m  143.6802m  556.3205m 
 -393.27475m    4.6706u  699.9960m  143.8216m  556.1792m 
 -393.17475m    4.6987u  699.9960m  143.9630m  556.0378m 
 -393.07475m    4.7269u  699.9960m  144.1043m  555.8964m 
 -392.97475m    4.7553u  699.9960m  144.2457m  555.7550m 
 -392.87475m    4.7839u  699.9959m  144.3871m  555.6136m 
 -392.77475m    4.8126u  699.9959m  144.5285m  555.4722m 
 -392.67475m    4.8415u  699.9959m  144.6699m  555.3308m 
 -392.57475m    4.8706u  699.9959m  144.8113m  555.1894m 
 -392.47475m    4.8999u  699.9958m  144.9527m  555.0480m 
 -392.37475m    4.9294u  699.9958m  145.0941m  554.9066m 
 -392.27475m    4.9590u  699.9958m  145.2355m  554.7652m 
 -392.17475m    4.9888u  699.9958m  145.3769m  554.6238m 
 -392.07475m    5.0188u  699.9957m  145.5183m  554.4824m 
 -391.97475m    5.0490u  699.9957m  145.6597m  554.3411m 
 -391.87475m    5.0794u  699.9957m  145.8011m  554.1997m 
 -391.77475m    5.1099u  699.9957m  145.9425m  554.0583m 
 -391.67475m    5.1406u  699.9956m  146.0839m  553.9169m 
 -391.57475m    5.1716u  699.9956m  146.2253m  553.7755m 
 -391.47475m    5.2027u  699.9956m  146.3667m  553.6341m 
 -391.37475m    5.2340u  699.9956m  146.5081m  553.4927m 
 -391.27475m    5.2655u  699.9955m  146.6495m  553.3513m 
 -391.17475m    5.2972u  699.9955m  146.7909m  553.2099m 
 -391.07475m    5.3290u  699.9955m  146.9323m  553.0685m 
 -390.97475m    5.3611u  699.9955m  147.0737m  552.9272m 
 -390.87475m    5.3934u  699.9954m  147.2151m  552.7858m 
 -390.77475m    5.4259u  699.9954m  147.3565m  552.6444m 
 -390.67475m    5.4585u  699.9954m  147.4979m  552.5030m 
 -390.57475m    5.4914u  699.9954m  147.6393m  552.3616m 
 -390.47475m    5.5244u  699.9953m  147.7806m  552.2202m 
 -390.37475m    5.5577u  699.9953m  147.9220m  552.0788m 
 -390.27475m    5.5912u  699.9953m  148.0634m  551.9374m 
 -390.17475m    5.6249u  699.9952m  148.2048m  551.7960m 
 -390.07475m    5.6587u  699.9952m  148.3462m  551.6547m 
 -389.97475m    5.6928u  699.9952m  148.4876m  551.5133m 
 -389.87475m    5.7271u  699.9952m  148.6290m  551.3719m 
 -389.77475m    5.7616u  699.9951m  148.7704m  551.2305m 
 -389.67475m    5.7963u  699.9951m  148.9118m  551.0891m 
 -389.57475m    5.8313u  699.9951m  149.0532m  550.9477m 
 -389.47475m    5.8664u  699.9951m  149.1946m  550.8063m 
 -389.37475m    5.9018u  699.9950m  149.3360m  550.6649m 
 -389.27475m    5.9373u  699.9950m  149.4774m  550.5236m 
 -389.17475m    5.9731u  699.9950m  149.6188m  550.3822m 
 -389.07475m    6.0091u  699.9949m  149.7601m  550.2408m 
 -388.97475m    6.0454u  699.9949m  149.9015m  550.0994m 
 -388.87475m    6.0818u  699.9949m  150.0429m  549.9580m 
 -388.77475m    6.1185u  699.9948m  150.1843m  549.8166m 
 -388.67475m    6.1554u  699.9948m  150.3257m  549.6753m 
 -388.57475m    6.1925u  699.9948m  150.4671m  549.5339m 
 -388.47475m    6.2299u  699.9948m  150.6085m  549.3925m 
 -388.37475m    6.2675u  699.9947m  150.7499m  549.2511m 
 -388.27475m    6.3053u  699.9947m  150.8913m  549.1097m 
 -388.17475m    6.3433u  699.9947m  151.0327m  548.9683m 
 -388.07475m    6.3816u  699.9946m  151.1741m  548.8270m 
 -387.97475m    6.4201u  699.9946m  151.3154m  548.6856m 
 -387.87475m    6.4588u  699.9946m  151.4568m  548.5442m 
 -387.77475m    6.4978u  699.9945m  151.5982m  548.4028m 
 -387.67475m    6.5370u  699.9945m  151.7396m  548.2614m 
 -387.57475m    6.5765u  699.9945m  151.8810m  548.1200m 
 -387.47475m    6.6162u  699.9944m  152.0224m  547.9787m 
 -387.37475m    6.6561u  699.9944m  152.1638m  547.8373m 
 -387.27475m    6.6963u  699.9944m  152.3052m  547.6959m 
 -387.17475m    6.7368u  699.9943m  152.4466m  547.5545m 
 -387.07475m    6.7774u  699.9943m  152.5879m  547.4131m 
 -386.97475m    6.8184u  699.9943m  152.7293m  547.2718m 
 -386.87475m    6.8596u  699.9942m  152.8707m  547.1304m 
 -386.77475m    6.9010u  699.9942m  153.0121m  546.9890m 
 -386.67475m    6.9427u  699.9942m  153.1535m  546.8476m 
 -386.57475m    6.9846u  699.9941m  153.2949m  546.7062m 
 -386.47475m    7.0268u  699.9941m  153.4363m  546.5649m 
 -386.37475m    7.0693u  699.9941m  153.5777m  546.4235m 
 -386.27475m    7.1120u  699.9940m  153.7190m  546.2821m 
 -386.17475m    7.1550u  699.9940m  153.8604m  546.1407m 
 -386.07475m    7.1982u  699.9940m  154.0018m  545.9993m 
 -385.97475m    7.2418u  699.9939m  154.1432m  545.8580m 
 -385.87475m    7.2855u  699.9939m  154.2846m  545.7166m 
 -385.77475m    7.3296u  699.9939m  154.4260m  545.5752m 
 -385.67475m    7.3739u  699.9938m  154.5674m  545.4338m 
 -385.57475m    7.4185u  699.9938m  154.7087m  545.2925m 
 -385.47475m    7.4633u  699.9937m  154.8501m  545.1511m 
 -385.37475m    7.5085u  699.9937m  154.9915m  545.0097m 
 -385.27475m    7.5539u  699.9937m  155.1329m  544.8683m 
 -385.17475m    7.5996u  699.9936m  155.2743m  544.7270m 
 -385.07475m    7.6456u  699.9936m  155.4157m  544.5856m 
 -384.97475m    7.6918u  699.9936m  155.5571m  544.4442m 
 -384.87475m    7.7383u  699.9935m  155.6984m  544.3028m 
 -384.77475m    7.7852u  699.9935m  155.8398m  544.1615m 
 -384.67475m    7.8323u  699.9934m  155.9812m  544.0201m 
 -384.57475m    7.8797u  699.9934m  156.1226m  543.8787m 
 -384.47475m    7.9274u  699.9934m  156.2640m  543.7373m 
 -384.37475m    7.9754u  699.9933m  156.4054m  543.5960m 
 -384.27475m    8.0236u  699.9933m  156.5467m  543.4546m 
 -384.17475m    8.0722u  699.9933m  156.6881m  543.3132m 
 -384.07475m    8.1211u  699.9932m  156.8295m  543.1718m 
 -383.97475m    8.1703u  699.9932m  156.9709m  543.0305m 
 -383.87475m    8.2197u  699.9931m  157.1123m  542.8891m 
 -383.77475m    8.2695u  699.9931m  157.2536m  542.7477m 
 -383.67475m    8.3196u  699.9931m  157.3950m  542.6064m 
 -383.57475m    8.3700u  699.9930m  157.5364m  542.4650m 
 -383.47475m    8.4207u  699.9930m  157.6778m  542.3236m 
 -383.37475m    8.4717u  699.9929m  157.8192m  542.1822m 
 -383.27475m    8.5230u  699.9929m  157.9605m  542.0409m 
 -383.17475m    8.5747u  699.9928m  158.1019m  541.8995m 
 -383.07475m    8.6266u  699.9928m  158.2433m  541.7581m 
 -382.97475m    8.6789u  699.9928m  158.3847m  541.6168m 
 -382.87475m    8.7315u  699.9927m  158.5261m  541.4754m 
 -382.77475m    8.7844u  699.9927m  158.6674m  541.3340m 
 -382.67475m    8.8377u  699.9926m  158.8088m  541.1927m 
 -382.57475m    8.8913u  699.9926m  158.9502m  541.0513m 
 -382.47475m    8.9452u  699.9925m  159.0916m  540.9099m 
 -382.37475m    8.9994u  699.9925m  159.2329m  540.7686m 
 -382.27475m    9.0540u  699.9925m  159.3743m  540.6272m 
 -382.17475m    9.1089u  699.9924m  159.5157m  540.4858m 
 -382.07475m    9.1641u  699.9924m  159.6571m  540.3445m 
 -381.97475m    9.2197u  699.9923m  159.7985m  540.2031m 
 -381.87475m    9.2756u  699.9923m  159.9398m  540.0617m 
 -381.77475m    9.3319u  699.9922m  160.0812m  539.9204m 
 -381.67475m    9.3885u  699.9922m  160.2226m  539.7790m 
 -381.57475m    9.4455u  699.9921m  160.3640m  539.6376m 
 -381.47475m    9.5028u  699.9921m  160.5053m  539.4963m 
 -381.37475m    9.5605u  699.9920m  160.6467m  539.3549m 
 -381.27475m    9.6185u  699.9920m  160.7881m  539.2135m 
 -381.17475m    9.6769u  699.9920m  160.9295m  539.0722m 
 -381.07475m    9.7356u  699.9919m  161.0708m  538.9308m 
 -380.97475m    9.7947u  699.9919m  161.2122m  538.7894m 
 -380.87475m    9.8542u  699.9918m  161.3536m  538.6481m 
 -380.77475m    9.9140u  699.9918m  161.4950m  538.5067m 
 -380.67475m    9.9742u  699.9917m  161.6363m  538.3654m 
 -380.57475m   10.0348u  699.9917m  161.7777m  538.2240m 
 -380.47475m   10.0957u  699.9916m  161.9191m  538.0826m 
 -380.37475m   10.1571u  699.9916m  162.0604m  537.9413m 
 -380.27475m   10.2188u  699.9915m  162.2018m  537.7999m 
 -380.17475m   10.2808u  699.9915m  162.3432m  537.6586m 
 -380.07475m   10.3433u  699.9914m  162.4846m  537.5172m 
 -379.97475m   10.4061u  699.9914m  162.6259m  537.3758m 
 -379.87475m   10.4694u  699.9913m  162.7673m  537.2345m 
 -379.77475m   10.5330u  699.9913m  162.9087m  537.0931m 
 -379.67475m   10.5970u  699.9912m  163.0500m  536.9518m 
 -379.57475m   10.6614u  699.9912m  163.1914m  536.8104m 
 -379.47475m   10.7262u  699.9911m  163.3328m  536.6691m 
 -379.37475m   10.7914u  699.9911m  163.4741m  536.5277m 
 -379.27475m   10.8570u  699.9910m  163.6155m  536.3863m 
 -379.17475m   10.9230u  699.9910m  163.7569m  536.2450m 
 -379.07475m   10.9895u  699.9909m  163.8983m  536.1036m 
 -378.97475m   11.0563u  699.9908m  164.0396m  535.9623m 
 -378.87475m   11.1235u  699.9908m  164.1810m  535.8209m 
 -378.77475m   11.1912u  699.9907m  164.3224m  535.6796m 
 -378.67475m   11.2592u  699.9907m  164.4637m  535.5382m 
 -378.57475m   11.3277u  699.9906m  164.6051m  535.3969m 
 -378.47475m   11.3966u  699.9906m  164.7465m  535.2555m 
 -378.37475m   11.4660u  699.9905m  164.8878m  535.1142m 
 -378.27475m   11.5358u  699.9905m  165.0292m  534.9728m 
 -378.17475m   11.6060u  699.9904m  165.1706m  534.8315m 
 -378.07475m   11.6766u  699.9903m  165.3119m  534.6901m 
 -377.97475m   11.7477u  699.9903m  165.4533m  534.5488m 
 -377.87475m   11.8192u  699.9902m  165.5946m  534.4074m 
 -377.77475m   11.8911u  699.9902m  165.7360m  534.2661m 
 -377.67475m   11.9635u  699.9901m  165.8774m  534.1247m 
 -377.57475m   12.0363u  699.9901m  166.0187m  533.9834m 
 -377.47475m   12.1096u  699.9900m  166.1601m  533.8420m 
 -377.37475m   12.1834u  699.9899m  166.3015m  533.7007m 
 -377.27475m   12.2576u  699.9899m  166.4428m  533.5593m 
 -377.17475m   12.3322u  699.9898m  166.5842m  533.4180m 
 -377.07475m   12.4073u  699.9898m  166.7255m  533.2766m 
 -376.97475m   12.4829u  699.9897m  166.8669m  533.1353m 
 -376.87475m   12.5589u  699.9896m  167.0083m  532.9939m 
 -376.77475m   12.6355u  699.9896m  167.1496m  532.8526m 
 -376.67475m   12.7125u  699.9895m  167.2910m  532.7112m 
 -376.57475m   12.7899u  699.9895m  167.4323m  532.5699m 
 -376.47475m   12.8679u  699.9894m  167.5737m  532.4286m 
 -376.37475m   12.9463u  699.9893m  167.7151m  532.2872m 
 -376.27475m   13.0252u  699.9893m  167.8564m  532.1459m 
 -376.17475m   13.1046u  699.9892m  167.9978m  532.0045m 
 -376.07475m   13.1845u  699.9891m  168.1391m  531.8632m 
 -375.97475m   13.2649u  699.9891m  168.2805m  531.7219m 
 -375.87475m   13.3457u  699.9890m  168.4219m  531.5805m 
 -375.77475m   13.4271u  699.9890m  168.5632m  531.4392m 
 -375.67475m   13.5090u  699.9889m  168.7046m  531.2978m 
 -375.57475m   13.5914u  699.9888m  168.8459m  531.1565m 
 -375.47475m   13.6743u  699.9888m  168.9873m  531.0152m 
 -375.37475m   13.7577u  699.9887m  169.1286m  530.8738m 
 -375.27475m   13.8416u  699.9886m  169.2700m  530.7325m 
 -375.17475m   13.9261u  699.9886m  169.4113m  530.5911m 
 -375.07475m   14.0110u  699.9885m  169.5527m  530.4498m 
 -374.97475m   14.0965u  699.9884m  169.6940m  530.3085m 
 -374.87475m   14.1826u  699.9883m  169.8354m  530.1671m 
 -374.77475m   14.2691u  699.9883m  169.9768m  530.0258m 
 -374.67475m   14.3562u  699.9882m  170.1181m  529.8845m 
 -374.57475m   14.4438u  699.9881m  170.2595m  529.7431m 
 -374.47475m   14.5320u  699.9881m  170.4008m  529.6018m 
 -374.37475m   14.6207u  699.9880m  170.5422m  529.4605m 
 -374.27475m   14.7100u  699.9879m  170.6835m  529.3191m 
 -374.17475m   14.7998u  699.9879m  170.8249m  529.1778m 
 -374.07475m   14.8902u  699.9878m  170.9662m  529.0365m 
 -373.97475m   14.9811u  699.9877m  171.1076m  528.8951m 
 -373.87475m   15.0726u  699.9876m  171.2489m  528.7538m 
 -373.77475m   15.1647u  699.9876m  171.3903m  528.6125m 
 -373.67475m   15.2573u  699.9875m  171.5316m  528.4712m 
 -373.57475m   15.3506u  699.9874m  171.6729m  528.3298m 
 -373.47475m   15.4443u  699.9873m  171.8143m  528.1885m 
 -373.37475m   15.5387u  699.9873m  171.9556m  528.0472m 
 -373.27475m   15.6337u  699.9872m  172.0970m  527.9058m 
 -373.17475m   15.7292u  699.9871m  172.2383m  527.7645m 
 -373.07475m   15.8254u  699.9870m  172.3797m  527.6232m 
 -372.97475m   15.9221u  699.9870m  172.5210m  527.4819m 
 -372.87475m   16.0194u  699.9869m  172.6624m  527.3405m 
 -372.77475m   16.1174u  699.9868m  172.8037m  527.1992m 
 -372.67475m   16.2159u  699.9867m  172.9451m  527.0579m 
 -372.57475m   16.3150u  699.9867m  173.0864m  526.9166m 
 -372.47475m   16.4148u  699.9866m  173.2277m  526.7753m 
 -372.37475m   16.5152u  699.9865m  173.3691m  526.6339m 
 -372.27475m   16.6162u  699.9864m  173.5104m  526.4926m 
 -372.17475m   16.7178u  699.9863m  173.6518m  526.3513m 
 -372.07475m   16.8201u  699.9863m  173.7931m  526.2100m 
 -371.97475m   16.9230u  699.9862m  173.9344m  526.0687m 
 -371.87475m   17.0265u  699.9861m  174.0758m  525.9273m 
 -371.77475m   17.1307u  699.9860m  174.2171m  525.7860m 
 -371.67475m   17.2356u  699.9859m  174.3585m  525.6447m 
 -371.57475m   17.3410u  699.9858m  174.4998m  525.5034m 
 -371.47475m   17.4472u  699.9858m  174.6411m  525.3621m 
 -371.37475m   17.5540u  699.9857m  174.7825m  525.2208m 
 -371.27475m   17.6614u  699.9856m  174.9238m  525.0794m 
 -371.17475m   17.7695u  699.9855m  175.0651m  524.9381m 
 -371.07475m   17.8783u  699.9854m  175.2065m  524.7968m 
 -370.97475m   17.9878u  699.9853m  175.3478m  524.6555m 
 -370.87475m   18.0979u  699.9852m  175.4891m  524.5142m 
 -370.77475m   18.2088u  699.9852m  175.6305m  524.3729m 
 -370.67475m   18.3203u  699.9851m  175.7718m  524.2316m 
 -370.57475m   18.4325u  699.9850m  175.9131m  524.0903m 
 -370.47475m   18.5454u  699.9849m  176.0545m  523.9490m 
 -370.37475m   18.6590u  699.9848m  176.1958m  523.8076m 
 -370.27475m   18.7734u  699.9847m  176.3371m  523.6663m 
 -370.17475m   18.8884u  699.9846m  176.4785m  523.5250m 
 -370.07475m   19.0041u  699.9845m  176.6198m  523.3837m 
 -369.97475m   19.1206u  699.9844m  176.7611m  523.2424m 
 -369.87475m   19.2378u  699.9843m  176.9025m  523.1011m 
 -369.77475m   19.3557u  699.9843m  177.0438m  522.9598m 
 -369.67475m   19.4743u  699.9842m  177.1851m  522.8185m 
 -369.57475m   19.5937u  699.9841m  177.3264m  522.6772m 
 -369.47475m   19.7138u  699.9840m  177.4678m  522.5359m 
 -369.37475m   19.8347u  699.9839m  177.6091m  522.3946m 
 -369.27475m   19.9563u  699.9838m  177.7504m  522.2533m 
 -369.17475m   20.0787u  699.9837m  177.8918m  522.1120m 
 -369.07475m   20.2019u  699.9836m  178.0331m  521.9707m 
 -368.97475m   20.3258u  699.9835m  178.1744m  521.8294m 
 -368.87475m   20.4504u  699.9834m  178.3157m  521.6881m 
 -368.77475m   20.5759u  699.9833m  178.4570m  521.5468m 
 -368.67475m   20.7021u  699.9832m  178.5984m  521.4055m 
 -368.57475m   20.8292u  699.9831m  178.7397m  521.2642m 
 -368.47475m   20.9570u  699.9830m  178.8810m  521.1229m 
 -368.37475m   21.0856u  699.9829m  179.0223m  520.9816m 
 -368.27475m   21.2150u  699.9828m  179.1636m  520.8404m 
 -368.17475m   21.3452u  699.9827m  179.3050m  520.6991m 
 -368.07475m   21.4762u  699.9826m  179.4463m  520.5578m 
 -367.97475m   21.6080u  699.9825m  179.5876m  520.4165m 
 -367.87475m   21.7407u  699.9824m  179.7289m  520.2752m 
 -367.77475m   21.8742u  699.9823m  179.8702m  520.1339m 
 -367.67475m   22.0085u  699.9822m  180.0116m  519.9926m 
 -367.57475m   22.1437u  699.9821m  180.1529m  519.8513m 
 -367.47475m   22.2796u  699.9820m  180.2942m  519.7101m 
 -367.37475m   22.4165u  699.9818m  180.4355m  519.5688m 
 -367.27475m   22.5542u  699.9817m  180.5768m  519.4275m 
 -367.17475m   22.6927u  699.9816m  180.7181m  519.2862m 
 -367.07475m   22.8321u  699.9815m  180.8594m  519.1449m 
 -366.97475m   22.9724u  699.9814m  181.0007m  519.0036m 
 -366.87475m   23.1136u  699.9813m  181.1421m  518.8624m 
 -366.77475m   23.2556u  699.9812m  181.2834m  518.7211m 
 -366.67475m   23.3985u  699.9811m  181.4247m  518.5798m 
 -366.57475m   23.5424u  699.9810m  181.5660m  518.4385m 
 -366.47475m   23.6871u  699.9809m  181.7073m  518.2972m 
 -366.37475m   23.8327u  699.9807m  181.8486m  518.1560m 
 -366.27475m   23.9792u  699.9806m  181.9899m  518.0147m 
 -366.17475m   24.1266u  699.9805m  182.1312m  517.8734m 
 -366.07475m   24.2750u  699.9804m  182.2725m  517.7321m 
 -365.97475m   24.4242u  699.9803m  182.4138m  517.5909m 
 -365.87475m   24.5744u  699.9802m  182.5551m  517.4496m 
 -365.77475m   24.7256u  699.9800m  182.6964m  517.3083m 
 -365.67475m   24.8777u  699.9799m  182.8377m  517.1671m 
 -365.57475m   25.0307u  699.9798m  182.9790m  517.0258m 
 -365.47475m   25.1847u  699.9797m  183.1203m  516.8845m 
 -365.37475m   25.3396u  699.9796m  183.2616m  516.7433m 
 -365.27475m   25.4956u  699.9794m  183.4029m  516.6020m 
 -365.17475m   25.6525u  699.9793m  183.5442m  516.4607m 
 -365.07475m   25.8103u  699.9792m  183.6855m  516.3195m 
 -364.97475m   25.9692u  699.9791m  183.8268m  516.1782m 
 -364.87475m   26.1290u  699.9789m  183.9681m  516.0369m 
 -364.77475m   26.2899u  699.9788m  184.1094m  515.8957m 
 -364.67475m   26.4517u  699.9787m  184.2507m  515.7544m 
 -364.57475m   26.6146u  699.9786m  184.3920m  515.6132m 
 -364.47475m   26.7784u  699.9784m  184.5333m  515.4719m 
 -364.37475m   26.9433u  699.9783m  184.6746m  515.3307m 
 -364.27475m   27.1093u  699.9782m  184.8159m  515.1894m 
 -364.17475m   27.2762u  699.9781m  184.9572m  515.0481m 
 -364.07475m   27.4442u  699.9779m  185.0985m  514.9069m 
 -363.97475m   27.6133u  699.9778m  185.2398m  514.7656m 
 -363.87475m   27.7834u  699.9777m  185.3811m  514.6244m 
 -363.77475m   27.9546u  699.9775m  185.5223m  514.4831m 
 -363.67475m   28.1268u  699.9774m  185.6636m  514.3419m 
 -363.57475m   28.3001u  699.9773m  185.8049m  514.2006m 
 -363.47475m   28.4745u  699.9771m  185.9462m  514.0594m 
 -363.37475m   28.6500u  699.9770m  186.0875m  513.9181m 
 -363.27475m   28.8266u  699.9768m  186.2288m  513.7769m 
 -363.17475m   29.0043u  699.9767m  186.3701m  513.6357m 
 -363.07475m   29.1831u  699.9766m  186.5113m  513.4944m 
 -362.97475m   29.3630u  699.9764m  186.6526m  513.3532m 
 -362.87475m   29.5441u  699.9763m  186.7939m  513.2119m 
 -362.77475m   29.7262u  699.9761m  186.9352m  513.0707m 
 -362.67475m   29.9096u  699.9760m  187.0765m  512.9295m 
 -362.57475m   30.0940u  699.9759m  187.2177m  512.7882m 
 -362.47475m   30.2796u  699.9757m  187.3590m  512.6470m 
 -362.37475m   30.4664u  699.9756m  187.5003m  512.5057m 
 -362.27475m   30.6544u  699.9754m  187.6416m  512.3645m 
 -362.17475m   30.8435u  699.9753m  187.7828m  512.2233m 
 -362.07475m   31.0338u  699.9751m  187.9241m  512.0821m 
 -361.97475m   31.2253u  699.9750m  188.0654m  511.9408m 
 -361.87475m   31.4180u  699.9748m  188.2067m  511.7996m 
 -361.77475m   31.6119u  699.9747m  188.3479m  511.6584m 
 -361.67475m   31.8070u  699.9745m  188.4892m  511.5171m 
 -361.57475m   32.0033u  699.9744m  188.6305m  511.3759m 
 -361.47475m   32.2009u  699.9742m  188.7717m  511.2347m 
 -361.37475m   32.3997u  699.9741m  188.9130m  511.0935m 
 -361.27475m   32.5997u  699.9739m  189.0543m  510.9522m 
 -361.17475m   32.8010u  699.9738m  189.1955m  510.8110m 
 -361.07475m   33.0036u  699.9736m  189.3368m  510.6698m 
 -360.97475m   33.2074u  699.9734m  189.4781m  510.5286m 
 -360.87475m   33.4125u  699.9733m  189.6193m  510.3874m 
 -360.77475m   33.6189u  699.9731m  189.7606m  510.2462m 
 -360.67475m   33.8265u  699.9730m  189.9018m  510.1049m 
 -360.57475m   34.0355u  699.9728m  190.0431m  509.9637m 
 -360.47475m   34.2458u  699.9726m  190.1844m  509.8225m 
 -360.37475m   34.4574u  699.9725m  190.3256m  509.6813m 
 -360.27475m   34.6703u  699.9723m  190.4669m  509.5401m 
 -360.17475m   34.8846u  699.9722m  190.6081m  509.3989m 
 -360.07475m   35.1002u  699.9720m  190.7494m  509.2577m 
[...]
  469.52525m  699.9999m   60.2433n  664.0090m   35.9910m 
  469.62525m  699.9999m   59.9352n  664.1505m   35.8495m 
  469.72525m  699.9999m   59.6290n  664.2919m   35.7081m 
  469.82525m  699.9999m   59.3245n  664.4333m   35.5667m 
  469.92525m  699.9999m   59.0218n  664.5747m   35.4253m 
  470.02525m  699.9999m   58.7209n  664.7161m   35.2839m 
  470.12525m  699.9999m   58.4216n  664.8576m   35.1424m 
  470.22525m  699.9999m   58.1241n  664.9990m   35.0010m 
  470.32525m  699.9999m   57.8283n  665.1404m   34.8596m 
  470.42525m  699.9999m   57.5342n  665.2818m   34.7182m 
  470.52525m  699.9999m   57.2418n  665.4233m   34.5768m 
  470.62525m  699.9999m   56.9511n  665.5647m   34.4353m 
  470.72525m  699.9999m   56.6621n  665.7061m   34.2939m 
  470.82525m  699.9999m   56.3747n  665.8475m   34.1525m 
  470.92525m  699.9999m   56.0890n  665.9889m   34.0111m 
  471.02525m  699.9999m   55.8049n  666.1304m   33.8696m 
  471.12525m  699.9999m   55.5225n  666.2718m   33.7282m 
  471.22525m  699.9999m   55.2417n  666.4132m   33.5868m 
  471.32525m  699.9999m   54.9625n  666.5546m   33.4454m 
  471.42525m  699.9999m   54.6849n  666.6960m   33.3040m 
  471.52525m  699.9999m   54.4089n  666.8375m   33.1625m 
  471.62525m  699.9999m   54.1345n  666.9789m   33.0211m 
  471.72525m  700.0000m   53.8617n  667.1203m   32.8797m 
  471.82525m  700.0000m   53.5904n  667.2617m   32.7383m 
  471.92525m  700.0000m   53.3208n  667.4031m   32.5969m 
  472.02525m  700.0000m   53.0526n  667.5446m   32.4554m 
  472.12525m  700.0000m   52.7861n  667.6860m   32.3140m 
  472.22525m  700.0000m   52.5210n  667.8274m   32.1726m 
  472.32525m  700.0000m   52.2575n  667.9688m   32.0312m 
  472.42525m  700.0000m   51.9955n  668.1103m   31.8898m 
  472.52525m  700.0000m   51.7350n  668.2517m   31.7483m 
  472.62525m  700.0000m   51.4760n  668.3931m   31.6069m 
  472.72525m  700.0000m   51.2185n  668.5345m   31.4655m 
  472.82525m  700.0000m   50.9624n  668.6759m   31.3241m 
  472.92525m  700.0000m   50.7079n  668.8174m   31.1826m 
  473.02525m  700.0000m   50.4548n  668.9588m   31.0412m 
  473.12525m  700.0000m   50.2032n  669.1002m   30.8998m 
  473.22525m  700.0000m   49.9530n  669.2416m   30.7584m 
  473.32525m  700.0000m   49.7042n  669.3830m   30.6170m 
  473.42525m  700.0000m   49.4569n  669.5245m   30.4755m 
  473.52525m  700.0000m   49.2110n  669.6659m   30.3341m 
  473.62525m  700.0000m   48.9666n  669.8073m   30.1927m 
  473.72525m  700.0000m   48.7235n  669.9487m   30.0513m 
  473.82525m  700.0000m   48.4818n  670.0901m   29.9099m 
  473.92525m  700.0000m   48.2416n  670.2316m   29.7684m 
  474.02525m  700.0000m   48.0027n  670.3730m   29.6270m 
  474.12525m  700.0000m   47.7652n  670.5144m   29.4856m 
  474.22525m  700.0000m   47.5290n  670.6558m   29.3442m 
  474.32525m  700.0000m   47.2942n  670.7973m   29.2028m 
  474.42525m  700.0000m   47.0608n  670.9387m   29.0613m 
  474.52525m  700.0000m   46.8287n  671.0801m   28.9199m 
  474.62525m  700.0000m   46.5979n  671.2215m   28.7785m 
  474.72525m  700.0000m   46.3685n  671.3629m   28.6371m 
  474.82525m  700.0000m   46.1404n  671.5044m   28.4956m 
  474.92525m  700.0000m   45.9136n  671.6458m   28.3542m 
  475.02525m  700.0000m   45.6881n  671.7872m   28.2128m 
  475.12525m  700.0000m   45.4639n  671.9286m   28.0714m 
  475.22525m  700.0000m   45.2410n  672.0700m   27.9300m 
  475.32525m  700.0000m   45.0193n  672.2115m   27.7885m 
  475.42525m  700.0000m   44.7990n  672.3529m   27.6471m 
  475.52525m  700.0000m   44.5799n  672.4943m   27.5057m 
  475.62525m  700.0000m   44.3621n  672.6357m   27.3643m 
  475.72525m  700.0000m   44.1455n  672.7771m   27.2229m 
  475.82525m  700.0000m   43.9302n  672.9186m   27.0814m 
  475.92525m  700.0000m   43.7161n  673.0600m   26.9400m 
  476.02525m  700.0000m   43.5032n  673.2014m   26.7986m 
  476.12525m  700.0000m   43.2916n  673.3428m   26.6572m 
  476.22525m  700.0000m   43.0812n  673.4843m   26.5157m 
  476.32525m  700.0000m   42.8720n  673.6257m   26.3743m 
  476.42525m  700.0000m   42.6640n  673.7671m   26.2329m 
  476.52525m  700.0000m   42.4572n  673.9085m   26.0915m 
  476.62525m  700.0000m   42.2515n  674.0499m   25.9501m 
  476.72525m  700.0000m   42.0471n  674.1914m   25.8086m 
  476.82525m  700.0000m   41.8438n  674.3328m   25.6672m 
  476.92525m  700.0000m   41.6417n  674.4742m   25.5258m 
  477.02525m  700.0000m   41.4408n  674.6156m   25.3844m 
  477.12525m  700.0000m   41.2410n  674.7570m   25.2430m 
  477.22525m  700.0000m   41.0424n  674.8985m   25.1015m 
  477.32525m  700.0000m   40.8449n  675.0399m   24.9601m 
  477.42525m  700.0000m   40.6486n  675.1813m   24.8187m 
  477.52525m  700.0000m   40.4534n  675.3227m   24.6773m 
  477.62525m  700.0000m   40.2593n  675.4642m   24.5359m 
  477.72525m  700.0000m   40.0663n  675.6056m   24.3944m 
  477.82525m  700.0000m   39.8744n  675.7470m   24.2530m 
  477.92525m  700.0000m   39.6837n  675.8884m   24.1116m 
  478.02525m  700.0000m   39.4940n  676.0298m   23.9702m 
  478.12525m  700.0000m   39.3054n  676.1713m   23.8287m 
  478.22525m  700.0000m   39.1179n  676.3127m   23.6873m 
  478.32525m  700.0000m   38.9315n  676.4541m   23.5459m 
  478.42525m  700.0000m   38.7461n  676.5955m   23.4045m 
  478.52525m  700.0000m   38.5618n  676.7369m   23.2631m 
  478.62525m  700.0000m   38.3786n  676.8784m   23.1216m 
  478.72525m  700.0000m   38.1965n  677.0198m   22.9802m 
  478.82525m  700.0000m   38.0153n  677.1612m   22.8388m 
  478.92525m  700.0000m   37.8352n  677.3026m   22.6974m 
  479.02525m  700.0000m   37.6562n  677.4440m   22.5560m 
  479.12525m  700.0000m   37.4782n  677.5855m   22.4145m 
  479.22525m  700.0000m   37.3012n  677.7269m   22.2731m 
  479.32525m  700.0000m   37.1252n  677.8683m   22.1317m 
  479.42525m  700.0000m   36.9502n  678.0097m   21.9903m 
  479.52525m  700.0000m   36.7763n  678.1512m   21.8488m 
  479.62525m  700.0000m   36.6033n  678.2926m   21.7074m 
  479.72525m  700.0000m   36.4313n  678.4340m   21.5660m 
  479.82525m  700.0000m   36.2604n  678.5754m   21.4246m 
  479.92525m  700.0000m   36.0904n  678.7168m   21.2832m 
  480.02525m  700.0000m   35.9214n  678.8583m   21.1417m 
  480.12525m  700.0000m   35.7533n  678.9997m   21.0003m 
  480.22525m  700.0000m   35.5862n  679.1411m   20.8589m 
  480.32525m  700.0000m   35.4201n  679.2825m   20.7175m 
  480.42525m  700.0000m   35.2549n  679.4239m   20.5761m 
  480.52525m  700.0000m   35.0907n  679.5654m   20.4346m 
  480.62525m  700.0000m   34.9274n  679.7068m   20.2932m 
  480.72525m  700.0000m   34.7651n  679.8482m   20.1518m 
  480.82525m  700.0000m   34.6037n  679.9896m   20.0104m 
  480.92525m  700.0000m   34.4432n  680.1310m   19.8690m 
  481.02525m  700.0000m   34.2836n  680.2725m   19.7275m 
  481.12525m  700.0000m   34.1250n  680.4139m   19.5861m 
  481.22525m  700.0000m   33.9673n  680.5553m   19.4447m 
  481.32525m  700.0000m   33.8105n  680.6967m   19.3033m 
  481.42525m  700.0000m   33.6545n  680.8382m   19.1618m 
  481.52525m  700.0000m   33.4995n  680.9796m   19.0204m 
  481.62525m  700.0000m   33.3454n  681.1210m   18.8790m 
  481.72525m  700.0000m   33.1921n  681.2624m   18.7376m 
  481.82525m  700.0000m   33.0398n  681.4038m   18.5962m 
  481.92525m  700.0000m   32.8883n  681.5453m   18.4547m 
  482.02525m  700.0000m   32.7376n  681.6867m   18.3133m 
  482.12525m  700.0000m   32.5879n  681.8281m   18.1719m 
  482.22525m  700.0000m   32.4390n  681.9695m   18.0305m 
  482.32525m  700.0000m   32.2909n  682.1109m   17.8891m 
  482.42525m  700.0000m   32.1437n  682.2524m   17.7476m 
  482.52525m  700.0000m   31.9974n  682.3938m   17.6062m 
  482.62525m  700.0000m   31.8519n  682.5352m   17.4648m 
  482.72525m  700.0000m   31.7072n  682.6766m   17.3234m 
  482.82525m  700.0000m   31.5634n  682.8181m   17.1819m 
  482.92525m  700.0000m   31.4204n  682.9595m   17.0405m 
  483.02525m  700.0000m   31.2782n  683.1009m   16.8991m 
  483.12525m  700.0000m   31.1368n  683.2423m   16.7577m 
  483.22525m  700.0000m   30.9962n  683.3837m   16.6163m 
  483.32525m  700.0000m   30.8565n  683.5252m   16.4748m 
  483.42525m  700.0000m   30.7175n  683.6666m   16.3334m 
  483.52525m  700.0000m   30.5794n  683.8080m   16.1920m 
  483.62525m  700.0000m   30.4420n  683.9494m   16.0506m 
  483.72525m  700.0000m   30.3054n  684.0908m   15.9092m 
  483.82525m  700.0000m   30.1696n  684.2323m   15.7677m 
  483.92525m  700.0000m   30.0346n  684.3737m   15.6263m 
  484.02525m  700.0000m   29.9004n  684.5151m   15.4849m 
  484.12525m  700.0000m   29.7669n  684.6565m   15.3435m 
  484.22525m  700.0000m   29.6342n  684.7979m   15.2021m 
  484.32525m  700.0000m   29.5023n  684.9394m   15.0606m 
  484.42525m  700.0000m   29.3711n  685.0808m   14.9192m 
  484.52525m  700.0000m   29.2407n  685.2222m   14.7778m 
  484.62525m  700.0000m   29.1110n  685.3636m   14.6364m 
  484.72525m  700.0000m   28.9821n  685.5051m   14.4949m 
  484.82525m  700.0000m   28.8539n  685.6465m   14.3535m 
  484.92525m  700.0000m   28.7264n  685.7879m   14.2121m 
  485.02525m  700.0000m   28.5997n  685.9293m   14.0707m 
  485.12525m  700.0000m   28.4737n  686.0707m   13.9293m 
  485.22525m  700.0000m   28.3485n  686.2122m   13.7878m 
  485.32525m  700.0000m   28.2239n  686.3536m   13.6464m 
  485.42525m  700.0000m   28.1001n  686.4950m   13.5050m 
  485.52525m  700.0000m   27.9769n  686.6364m   13.3636m 
  485.62525m  700.0000m   27.8545n  686.7778m   13.2222m 
  485.72525m  700.0000m   27.7328n  686.9193m   13.0807m 
  485.82525m  700.0000m   27.6118n  687.0607m   12.9393m 
  485.92525m  700.0000m   27.4915n  687.2021m   12.7979m 
  486.02525m  700.0000m   27.3718n  687.3435m   12.6565m 
  486.12525m  700.0000m   27.2529n  687.4850m   12.5150m 
  486.22525m  700.0000m   27.1346n  687.6264m   12.3736m 
  486.32525m  700.0000m   27.0171n  687.7678m   12.2322m 
  486.42525m  700.0000m   26.9001n  687.9092m   12.0908m 
  486.52525m  700.0000m   26.7839n  688.0506m   11.9494m 
  486.62525m  700.0000m   26.6683n  688.1921m   11.8079m 
  486.72525m  700.0000m   26.5534n  688.3335m   11.6665m 
  486.82525m  700.0000m   26.4392n  688.4749m   11.5251m 
  486.92525m  700.0000m   26.3256n  688.6163m   11.3837m 
  487.02525m  700.0000m   26.2127n  688.7577m   11.2423m 
  487.12525m  700.0000m   26.1004n  688.8992m   11.1008m 
  487.22525m  700.0000m   25.9888n  689.0406m   10.9594m 
  487.32525m  700.0000m   25.8777n  689.1820m   10.8180m 
  487.42525m  700.0000m   25.7674n  689.3234m   10.6766m 
  487.52525m  700.0000m   25.6577n  689.4649m   10.5352m 
  487.62525m  700.0000m   25.5486n  689.6063m   10.3937m 
  487.72525m  700.0000m   25.4401n  689.7477m   10.2523m 
  487.82525m  700.0000m   25.3322n  689.8891m   10.1109m 
  487.92525m  700.0000m   25.2250n  690.0305m    9.9695m 
  488.02525m  700.0000m   25.1184n  690.1720m    9.8280m 
  488.12525m  700.0000m   25.0124n  690.3134m    9.6866m 
  488.22525m  700.0000m   24.9070n  690.4548m    9.5452m 
  488.32525m  700.0000m   24.8022n  690.5962m    9.4038m 
  488.42525m  700.0000m   24.6980n  690.7376m    9.2624m 
  488.52525m  700.0000m   24.5944n  690.8791m    9.1209m 
  488.62525m  700.0000m   24.4914n  691.0205m    8.9795m 
  488.72525m  700.0000m   24.3890n  691.1619m    8.8381m 
  488.82525m  700.0000m   24.2872n  691.3033m    8.6967m 
  488.92525m  700.0000m   24.1860n  691.4447m    8.5553m 
  489.02525m  700.0000m   24.0853n  691.5862m    8.4138m 
  489.12525m  700.0000m   23.9853n  691.7276m    8.2724m 
  489.22525m  700.0000m   23.8858n  691.8690m    8.1310m 
  489.32525m  700.0000m   23.7869n  692.0104m    7.9896m 
  489.42525m  700.0000m   23.6885n  692.1519m    7.8481m 
  489.52525m  700.0000m   23.5907n  692.2933m    7.7067m 
  489.62525m  700.0000m   23.4935n  692.4347m    7.5653m 
  489.72525m  700.0000m   23.3968n  692.5761m    7.4239m 
  489.82525m  700.0000m   23.3007n  692.7175m    7.2825m 
  489.92525m  700.0000m   23.2051n  692.8590m    7.1410m 
  490.02525m  700.0000m   23.1101n  693.0004m    6.9996m 
  490.12525m  700.0000m   23.0156n  693.1418m    6.8582m 
  490.22525m  700.0000m   22.9217n  693.2832m    6.7168m 
  490.32525m  700.0000m   22.8283n  693.4246m    6.5754m 
  490.42525m  700.0000m   22.7355n  693.5661m    6.4339m 
  490.52525m  700.0000m   22.6432n  693.7075m    6.2925m 
  490.62525m  700.0000m   22.5514n  693.8489m    6.1511m 
  490.72525m  700.0000m   22.4601n  693.9903m    6.0097m 
  490.82525m  700.0000m   22.3694n  694.1318m    5.8682m 
  490.92525m  700.0000m   22.2792n  694.2732m    5.7268m 
  491.02525m  700.0000m   22.1895n  694.4146m    5.5854m 
  491.12525m  700.0000m   22.1003n  694.5560m    5.4440m 
  491.22525m  700.0000m   22.0116n  694.6974m    5.3026m 
  491.32525m  700.0000m   21.9235n  694.8389m    5.1611m 
  491.42525m  700.0000m   21.8358n  694.9803m    5.0197m 
  491.52525m  700.0000m   21.7487n  695.1217m    4.8783m 
  491.62525m  700.0000m   21.6620n  695.2631m    4.7369m 
  491.72525m  700.0000m   21.5759n  695.4045m    4.5955m 
  491.82525m  700.0000m   21.4902n  695.5460m    4.4540m 
  491.92525m  700.0000m   21.4050n  695.6874m    4.3126m 
  492.02525m  700.0000m   21.3204n  695.8288m    4.1712m 
  492.12525m  700.0000m   21.2362n  695.9702m    4.0298m 
  492.22525m  700.0000m   21.1525n  696.1116m    3.8884m 
  492.32525m  700.0000m   21.0693n  696.2531m    3.7469m 
  492.42525m  700.0000m   20.9865n  696.3945m    3.6055m 
  492.52525m  700.0000m   20.9042n  696.5359m    3.4641m 
  492.62525m  700.0000m   20.8225n  696.6773m    3.3227m 
  492.72525m  700.0000m   20.7411n  696.8188m    3.1812m 
  492.82525m  700.0000m   20.6603n  696.9602m    3.0398m 
  492.92525m  700.0000m   20.5799n  697.1016m    2.8984m 
  493.02525m  700.0000m   20.4999n  697.2430m    2.7570m 
  493.12525m  700.0000m   20.4205n  697.3844m    2.6156m 
  493.22525m  700.0000m   20.3415n  697.5259m    2.4741m 
  493.32525m  700.0000m   20.2629n  697.6673m    2.3327m 
  493.42525m  700.0000m   20.1848n  697.8087m    2.1913m 
  493.52525m  700.0000m   20.1071n  697.9501m    2.0499m 
  493.62525m  700.0000m   20.0299n  698.0915m    1.9085m 
  493.72525m  700.0000m   19.9531n  698.2330m    1.7670m 
  493.82525m  700.0000m   19.8768n  698.3744m    1.6256m 
  493.92525m  700.0000m   19.8009n  698.5158m    1.4842m 
  494.02525m  700.0000m   19.7255n  698.6572m    1.3428m 
  494.12525m  700.0000m   19.6504n  698.7987m    1.2013m 
  494.22525m  700.0000m   19.5759n  698.9401m    1.0599m 
  494.32525m  700.0000m   19.5017n  699.0815m  918.5050u 
  494.42525m  700.0000m   19.4280n  699.2229m  777.0837u 
  494.52525m  700.0000m   19.3547n  699.3643m  635.6625u 
  494.62525m  700.0000m   19.2818n  699.5058m  494.2412u 
  494.72525m  700.0000m   19.2093n  699.6472m  352.8199u 
  494.82525m  700.0000m   19.1372n  699.7886m  211.3986u 
  494.92525m  700.0000m   19.0656n  699.9300m   69.9773u 
y
 max_1= 435.8676m    at=-253.4747m
             from=-494.9747m    to= 494.9253m
 max_2= 435.8675m    at= 253.4253m
             from=-494.9747m    to= 494.9253m
 snm= 308.2049m
1****** HSPICE -- Q-2020.03-SP2-2 linux64 (Nov  1 2020) ******                  
 ******  
 .title noise margin in hold operation

 ****** operating point information tnom=  25.000 temp=  25.000 ******
 ****** operating point status is all       simulation time is     0.     
    node    =voltage      node    =voltage      node    =voltage

 +0:bl      = 700.0000m 0:blb     = 700.0000m 0:gl      = 357.3264m
 +0:gr      = 357.3264m 0:q       = 357.3264m 0:qb      = 357.3264m
 +0:u       =   0.      0:v1      = 505.3359m 0:v2      = 505.3359m
 +0:vdd     = 700.0000m 0:wl      =   0.      0:x       = 659.0488m


 **** voltage sources

 subckt                                   
 element  0:vu       0:vvdd     0:vwl     
  volts      0.       700.0000m    0.     
  current    0.        -1.3565u  602.9321f
  power      0.       949.5660n    0.     

     total voltage source power dissipation=  949.5660n       watts



 **** voltage-controlled voltage sources


 subckt                                              
 element  0:eli      0:ev1      0:eri      0:ev2     
  volts    357.3264m  505.3359m  357.3264m  505.3359m
  current    1.4731f    0.         1.4731f    0.     





 **** mosfets


 subckt                                                                    
 element  0:mpr      0:mnr      0:mpl      0:mnl      0:mnpr     0:mnpl    
 model    0:pmos_sra 0:nmos_sra 0:pmos_sra 0:nmos_sra 0:nmos_sra 0:nmos_sra
 region   Saturation Subth      Saturation Subth      Cutoff     Cutoff    
  id      -678.2614n  678.2613n -678.2614n  678.2613n    1.8819f    1.8819f
  ibs        0.         0.         0.         0.         0.         0.     
  ibd        0.         0.         0.         0.         0.         0.     
  vgs     -342.6736m  357.3264m -342.6736m  357.3264m -357.3264m -357.3264m
  vds     -342.6736m  357.3264m -342.6736m  357.3264m  342.6736m  342.6736m
  vbs      -40.9512m  659.0488m  -40.9512m  659.0488m  301.7224m  301.7224m
  vth     -334.5503m  408.5634m -334.5503m  408.5634m  408.6441m  408.6441m
  vdsat   -101.2986m   76.6850m -101.2986m   76.6850m   70.6690m   70.6690m
  vod       -8.1233m  -51.2370m   -8.1233m  -51.2370m -765.9705m -765.9705m
  beta       1.6413m    4.3473m    1.6413m    4.3473m    4.3473m    4.3473m
  gam eff    0.         0.         0.         0.         0.         0.     
  gm        16.2949u   22.1637u   16.2949u   22.1637u  1.949e-20  1.949e-20
  gds      383.5509n  344.0173n  383.5509n  344.0173n  444.0908a  444.0908a
  gmb        6.3836p   16.6837p    6.3836p   16.6837p  2.676e-20  2.676e-20
  cdtot     10.1697a   20.4408a   10.1697a   20.4408a   20.4450a   20.4450a
  cgtot     32.8849a   49.5625a   32.8849a   49.5625a   40.8900a   40.8900a
  cstot     18.2978a   26.3180a   18.2978a   26.3180a   20.4450a   20.4450a
  cbtot      0.         0.         0.         0.         0.         0.     
  cgs       22.8407a   29.1537a   22.8407a   29.1537a   20.4450a   20.4450a
  cgd       10.0442a   20.4088a   10.0442a   20.4088a   20.4450a   20.4450a




          ***** job concluded
 ******  
 .title noise margin in hold operation

 ****** job statistics summary tnom=  25.000 temp=  25.000 ******
  
 ******  Machine Information  ******
 CPU:
 model name	: AMD EPYC 7713 64-Core Processor
 cpu MHz	: 1500.000
  
 OS:
 Linux version 3.10.0-1160.88.1.el7.x86_64 (mockbuild@kbuilder.bsys.centos.org) (gcc version 4.8.5 20150623 (Red Hat 4.8.5-44) (GCC) ) #1 SMP Tue Mar 7 15:41:52 UTC 2023


  ******  HSPICE Threads Information  ******

  Command Line Threads Count :     1
  Available CPU Count        :   256
  Actual Threads Count       :     1


  ******  Circuit Statistics  ******
  # nodes       =      13 # elements   =      15
  # resistors   =       0 # capacitors =       2 # inductors   =       0
  # mutual_inds =       0 # vccs       =       0 # vcvs        =       4
  # cccs        =       0 # ccvs       =       0 # volt_srcs   =       3
  # curr_srcs   =       0 # diodes     =       0 # bjts        =       0
  # jfets       =       0 # mosfets    =       6 # U elements  =       0
  # T elements  =       0 # W elements =       0 # B elements  =       0
  # S elements  =       0 # P elements =       0 # va device   =       0
  # vector_srcs =       0 # N elements =       0


  ******  Runtime Statistics (seconds)  ******

  analysis           time    # points   tot. iter  conv.iter
  op point           0.01           1           9
  dc sweep           0.79        9900       29713
  readin             0.01
  errchk             0.01
  setup              0.00
  output             0.00


           peak memory used        406.02 megabytes
           total cpu time            0.88 seconds
           total elapsed time        1.03 seconds
           job started at     13:40:18 03/23/2025
           job ended   at     13:40:19 03/23/2025
           job total runtime         1.03 seconds


 lic: Release hspice token(s) 
 lic: total license checkout elapse time:        0.15(s)
