 ****** HSPICE -- Q-2020.03-SP2-2 linux64 (Nov  1 2020) ******                  
  Copyright (c) 1986 - 2025 by Synopsys, Inc. All Rights Reserved.              
  This software and the associated documentation are proprietary
  to Synopsys, Inc. This software may only be used in accordance
  with the terms and conditions of a written license agreement with
  Synopsys, Inc. All other use, reproduction, or distribution of
  this software is strictly prohibited.
  Input File: SRAM_SNM_TT.sp                                                    
  Command line options: /RAID2/cad/synopsys/hspice/2020.03-sp2-2/hspice/linux64/hspice -i SRAM_SNM_TT.sp -o SRAM_SNM_TT.lis
  Start time: Wed Mar 19 22:04:07 2025
 lic:  
 lic: FLEXlm: SDK_12.6 
 lic: USER:   es25MCS042           HOSTNAME: ee28 
 lic: HOSTID: "d85ed3efc19a"       PID:      78840 
 lic: Using FLEXlm license file: 
 lic: 26585@lshc 
 lic: Checkout 1 hspice 
 lic: License/Maintenance for hspice will expire on 14-may-2025/2024.09 
 lic: 210(in_use)/1100(total) FLOATING license(s) on SERVER 26585@lshc 
 lic:   
  
      
             
 Warning:'Floating bulk' occurs 1 times
 Summary of floating bulk:
 -----------------------
 |Node      |Device    |
 |----------+----------|
 |x         |mpr       |
 -----------------------
              
 *****************************************************************
 ******  option summary
 ******
 runlvl  = 3         bypass  = 2.0000    
 ******
 .title noise margin in hold operation

 ****** dc transfer curves tnom=  25.000 temp=  25.000 ******
x

 volt         voltage    voltage    voltage    voltage   
             q          qb         gr         gl         
 -707.10678m   22.1047n  700.0000m    1.0000  -300.0000m 
 -707.00678m   22.0921n  700.0000m  999.8586m -299.8586m 
 -706.90678m   22.0794n  700.0000m  999.7172m -299.7172m 
 -706.80678m   22.0668n  700.0000m  999.5758m -299.5757m 
 -706.70678m   22.0542n  700.0000m  999.4343m -299.4343m 
 -706.60678m   22.0416n  700.0000m  999.2929m -299.2929m 
 -706.50678m   22.0290n  700.0000m  999.1515m -299.1515m 
 -706.40678m   22.0164n  700.0000m  999.0101m -299.0101m 
 -706.30678m   22.0038n  700.0000m  998.8687m -298.8686m 
 -706.20678m   21.9912n  700.0000m  998.7272m -298.7272m 
 -706.10678m   21.9786n  700.0000m  998.5858m -298.5858m 
 -706.00678m   21.9660n  700.0000m  998.4444m -298.4444m 
 -705.90678m   21.9534n  700.0000m  998.3030m -298.3030m 
 -705.80678m   21.9408n  700.0000m  998.1615m -298.1615m 
 -705.70678m   21.9282n  700.0000m  998.0201m -298.0201m 
 -705.60678m   21.9156n  700.0000m  997.8787m -297.8787m 
 -705.50678m   21.9030n  700.0000m  997.7373m -297.7373m 
 -705.40678m   21.8905n  700.0000m  997.5959m -297.5958m 
 -705.30678m   21.8779n  700.0000m  997.4544m -297.4544m 
 -705.20678m   21.8653n  700.0000m  997.3130m -297.3130m 
 -705.10678m   21.8527n  700.0000m  997.1716m -297.1716m 
 -705.00678m   21.8402n  700.0000m  997.0302m -297.0302m 
 -704.90678m   21.8276n  700.0000m  996.8888m -296.8887m 
 -704.80678m   21.8150n  700.0000m  996.7473m -296.7473m 
 -704.70678m   21.8025n  700.0000m  996.6059m -296.6059m 
 -704.60678m   21.7899n  700.0000m  996.4645m -296.4645m 
 -704.50678m   21.7774n  700.0000m  996.3231m -296.3231m 
 -704.40678m   21.7648n  700.0000m  996.1816m -296.1816m 
 -704.30678m   21.7523n  700.0000m  996.0402m -296.0402m 
 -704.20678m   21.7397n  700.0000m  995.8988m -295.8988m 
 -704.10678m   21.7272n  700.0000m  995.7574m -295.7574m 
 -704.00678m   21.7146n  700.0000m  995.6160m -295.6159m 
 -703.90678m   21.7021n  700.0000m  995.4745m -295.4745m 
 -703.80678m   21.6896n  700.0000m  995.3331m -295.3331m 
 -703.70678m   21.6770n  700.0000m  995.1917m -295.1917m 
 -703.60678m   21.6645n  700.0000m  995.0503m -295.0503m 
 -703.50678m   21.6520n  700.0000m  994.9089m -294.9088m 
 -703.40678m   21.6395n  700.0000m  994.7674m -294.7674m 
 -703.30678m   21.6269n  700.0000m  994.6260m -294.6260m 
 -703.20678m   21.6144n  700.0000m  994.4846m -294.4846m 
 -703.10678m   21.6019n  700.0000m  994.3432m -294.3432m 
 -703.00678m   21.5894n  700.0000m  994.2017m -294.2017m 
 -702.90678m   21.5769n  700.0000m  994.0603m -294.0603m 
 -702.80678m   21.5644n  700.0000m  993.9189m -293.9189m 
 -702.70678m   21.5519n  700.0000m  993.7775m -293.7775m 
 -702.60678m   21.5394n  700.0000m  993.6361m -293.6360m 
 -702.50678m   21.5269n  700.0000m  993.4946m -293.4946m 
 -702.40678m   21.5144n  700.0000m  993.3532m -293.3532m 
 -702.30678m   21.5019n  700.0000m  993.2118m -293.2118m 
 -702.20678m   21.4894n  700.0000m  993.0704m -293.0704m 
 -702.10678m   21.4769n  700.0000m  992.9290m -292.9289m 
 -702.00678m   21.4644n  700.0000m  992.7875m -292.7875m 
 -701.90678m   21.4519n  700.0000m  992.6461m -292.6461m 
 -701.80678m   21.4394n  700.0000m  992.5047m -292.5047m 
 -701.70678m   21.4270n  700.0000m  992.3633m -292.3633m 
 -701.60678m   21.4145n  700.0000m  992.2218m -292.2218m 
 -701.50678m   21.4020n  700.0000m  992.0804m -292.0804m 
 -701.40678m   21.3895n  700.0000m  991.9390m -291.9390m 
 -701.30678m   21.3771n  700.0000m  991.7976m -291.7976m 
 -701.20678m   21.3646n  700.0000m  991.6562m -291.6562m 
 -701.10678m   21.3521n  700.0000m  991.5147m -291.5147m 
 -701.00678m   21.3397n  700.0000m  991.3733m -291.3733m 
 -700.90678m   21.3272n  700.0000m  991.2319m -291.2319m 
 -700.80678m   21.3148n  700.0000m  991.0905m -291.0905m 
 -700.70678m   21.3023n  700.0000m  990.9491m -290.9490m 
 -700.60678m   21.2899n  700.0000m  990.8076m -290.8076m 
 -700.50678m   21.2774n  700.0000m  990.6662m -290.6662m 
 -700.40678m   21.2650n  700.0000m  990.5248m -290.5248m 
 -700.30678m   21.2525n  700.0000m  990.3834m -290.3834m 
 -700.20678m   21.2401n  700.0000m  990.2419m -290.2419m 
 -700.10678m   21.2277n  700.0000m  990.1005m -290.1005m 
 -700.00678m   21.2152n  700.0000m  989.9591m -289.9591m 
 -699.90678m   21.2028n  700.0000m  989.8177m -289.8177m 
 -699.80678m   21.1904n  700.0000m  989.6763m -289.6763m 
 -699.70678m   21.1779n  700.0000m  989.5348m -289.5348m 
 -699.60678m   21.1655n  700.0000m  989.3934m -289.3934m 
 -699.50678m   21.1531n  700.0000m  989.2520m -289.2520m 
 -699.40678m   21.1407n  700.0000m  989.1106m -289.1106m 
 -699.30678m   21.1283n  700.0000m  988.9692m -288.9691m 
 -699.20678m   21.1159n  700.0000m  988.8277m -288.8277m 
 -699.10678m   21.1034n  700.0000m  988.6863m -288.6863m 
 -699.00678m   21.0910n  700.0000m  988.5449m -288.5449m 
 -698.90678m   21.0786n  700.0000m  988.4035m -288.4035m 
 -698.80678m   21.0662n  700.0000m  988.2620m -288.2620m 
 -698.70678m   21.0538n  700.0000m  988.1206m -288.1206m 
 -698.60678m   21.0414n  700.0000m  987.9792m -287.9792m 
 -698.50678m   21.0290n  700.0000m  987.8378m -287.8378m 
 -698.40678m   21.0166n  700.0000m  987.6964m -287.6964m 
 -698.30678m   21.0043n  700.0000m  987.5549m -287.5549m 
 -698.20678m   20.9919n  700.0000m  987.4135m -287.4135m 
 -698.10678m   20.9795n  700.0000m  987.2721m -287.2721m 
 -698.00678m   20.9671n  700.0000m  987.1307m -287.1307m 
 -697.90678m   20.9547n  700.0000m  986.9893m -286.9892m 
 -697.80678m   20.9423n  700.0000m  986.8478m -286.8478m 
 -697.70678m   20.9300n  700.0000m  986.7064m -286.7064m 
 -697.60678m   20.9176n  700.0000m  986.5650m -286.5650m 
 -697.50678m   20.9052n  700.0000m  986.4236m -286.4236m 
 -697.40678m   20.8928n  700.0000m  986.2821m -286.2821m 
 -697.30678m   20.8805n  700.0000m  986.1407m -286.1407m 
 -697.20678m   20.8681n  700.0000m  985.9993m -285.9993m 
 -697.10678m   20.8558n  700.0000m  985.8579m -285.8579m 
 -697.00678m   20.8434n  700.0000m  985.7165m -285.7165m 
 -696.90678m   20.8310n  700.0000m  985.5750m -285.5750m 
 -696.80678m   20.8187n  700.0000m  985.4336m -285.4336m 
 -696.70678m   20.8063n  700.0000m  985.2922m -285.2922m 
 -696.60678m   20.7940n  700.0000m  985.1508m -285.1508m 
 -696.50678m   20.7816n  700.0000m  985.0094m -285.0093m 
 -696.40678m   20.7693n  700.0000m  984.8679m -284.8679m 
 -696.30678m   20.7570n  700.0000m  984.7265m -284.7265m 
 -696.20678m   20.7446n  700.0000m  984.5851m -284.5851m 
 -696.10678m   20.7323n  700.0000m  984.4437m -284.4437m 
 -696.00678m   20.7199n  700.0000m  984.3023m -284.3022m 
 -695.90678m   20.7076n  700.0000m  984.1608m -284.1608m 
 -695.80678m   20.6953n  700.0000m  984.0194m -284.0194m 
 -695.70678m   20.6830n  700.0000m  983.8780m -283.8780m 
 -695.60678m   20.6706n  700.0000m  983.7366m -283.7366m 
 -695.50678m   20.6583n  700.0000m  983.5951m -283.5951m 
 -695.40678m   20.6460n  700.0000m  983.4537m -283.4537m 
 -695.30678m   20.6337n  700.0000m  983.3123m -283.3123m 
 -695.20678m   20.6214n  700.0000m  983.1709m -283.1709m 
 -695.10678m   20.6090n  700.0000m  983.0295m -283.0294m 
 -695.00678m   20.5967n  700.0000m  982.8880m -282.8880m 
 -694.90678m   20.5844n  700.0000m  982.7466m -282.7466m 
 -694.80678m   20.5721n  700.0000m  982.6052m -282.6052m 
 -694.70678m   20.5598n  700.0000m  982.4638m -282.4638m 
 -694.60678m   20.5475n  700.0000m  982.3224m -282.3223m 
 -694.50678m   20.5352n  700.0000m  982.1809m -282.1809m 
 -694.40678m   20.5229n  700.0000m  982.0395m -282.0395m 
 -694.30678m   20.5106n  700.0000m  981.8981m -281.8981m 
 -694.20678m   20.4983n  700.0000m  981.7567m -281.7567m 
 -694.10678m   20.4860n  700.0000m  981.6152m -281.6152m 
 -694.00678m   20.4737n  700.0000m  981.4738m -281.4738m 
 -693.90678m   20.4615n  700.0000m  981.3324m -281.3324m 
 -693.80678m   20.4492n  700.0000m  981.1910m -281.1910m 
 -693.70678m   20.4369n  700.0000m  981.0496m -281.0495m 
 -693.60678m   20.4246n  700.0000m  980.9081m -280.9081m 
 -693.50678m   20.4123n  700.0000m  980.7667m -280.7667m 
 -693.40678m   20.4001n  700.0000m  980.6253m -280.6253m 
 -693.30678m   20.3878n  700.0000m  980.4839m -280.4839m 
 -693.20678m   20.3755n  700.0000m  980.3425m -280.3424m 
 -693.10678m   20.3633n  700.0000m  980.2010m -280.2010m 
 -693.00678m   20.3510n  700.0000m  980.0596m -280.0596m 
 -692.90678m   20.3387n  700.0000m  979.9182m -279.9182m 
 -692.80678m   20.3265n  700.0000m  979.7768m -279.7768m 
 -692.70678m   20.3142n  700.0000m  979.6353m -279.6353m 
 -692.60678m   20.3020n  700.0000m  979.4939m -279.4939m 
 -692.50678m   20.2897n  700.0000m  979.3525m -279.3525m 
 -692.40678m   20.2775n  700.0000m  979.2111m -279.2111m 
 -692.30678m   20.2652n  700.0000m  979.0697m -279.0696m 
 -692.20678m   20.2530n  700.0000m  978.9282m -278.9282m 
 -692.10678m   20.2407n  700.0000m  978.7868m -278.7868m 
 -692.00678m   20.2285n  700.0000m  978.6454m -278.6454m 
 -691.90678m   20.2162n  700.0000m  978.5040m -278.5040m 
 -691.80678m   20.2040n  700.0000m  978.3626m -278.3625m 
 -691.70678m   20.1918n  700.0000m  978.2211m -278.2211m 
 -691.60678m   20.1795n  700.0000m  978.0797m -278.0797m 
 -691.50678m   20.1673n  700.0000m  977.9383m -277.9383m 
 -691.40678m   20.1551n  700.0000m  977.7969m -277.7969m 
 -691.30678m   20.1428n  700.0000m  977.6554m -277.6554m 
 -691.20678m   20.1306n  700.0000m  977.5140m -277.5140m 
 -691.10678m   20.1184n  700.0000m  977.3726m -277.3726m 
 -691.00678m   20.1062n  700.0000m  977.2312m -277.2312m 
 -690.90678m   20.0939n  700.0000m  977.0898m -277.0898m 
 -690.80678m   20.0817n  700.0000m  976.9483m -276.9483m 
 -690.70678m   20.0695n  700.0000m  976.8069m -276.8069m 
 -690.60678m   20.0573n  700.0000m  976.6655m -276.6655m 
 -690.50678m   20.0451n  700.0000m  976.5241m -276.5241m 
 -690.40678m   20.0329n  700.0000m  976.3827m -276.3826m 
 -690.30678m   20.0207n  700.0000m  976.2412m -276.2412m 
 -690.20678m   20.0085n  700.0000m  976.0998m -276.0998m 
 -690.10678m   19.9963n  700.0000m  975.9584m -275.9584m 
 -690.00678m   19.9841n  700.0000m  975.8170m -275.8170m 
 -689.90678m   19.9719n  700.0000m  975.6755m -275.6755m 
 -689.80678m   19.9597n  700.0000m  975.5341m -275.5341m 
 -689.70678m   19.9475n  700.0000m  975.3927m -275.3927m 
 -689.60678m   19.9353n  700.0000m  975.2513m -275.2513m 
 -689.50678m   19.9231n  700.0000m  975.1099m -275.1099m 
 -689.40678m   19.9109n  700.0000m  974.9684m -274.9684m 
 -689.30678m   19.8987n  700.0000m  974.8270m -274.8270m 
 -689.20678m   19.8866n  700.0000m  974.6856m -274.6856m 
 -689.10678m   19.8744n  700.0000m  974.5442m -274.5442m 
 -689.00678m   19.8622n  700.0000m  974.4028m -274.4027m 
 -688.90678m   19.8500n  700.0000m  974.2613m -274.2613m 
 -688.80678m   19.8379n  700.0000m  974.1199m -274.1199m 
 -688.70678m   19.8257n  700.0000m  973.9785m -273.9785m 
 -688.60678m   19.8135n  700.0000m  973.8371m -273.8371m 
 -688.50678m   19.8013n  700.0000m  973.6956m -273.6956m 
 -688.40678m   19.7892n  700.0000m  973.5542m -273.5542m 
 -688.30678m   19.7770n  700.0000m  973.4128m -273.4128m 
 -688.20678m   19.7649n  700.0000m  973.2714m -273.2714m 
 -688.10678m   19.7527n  700.0000m  973.1300m -273.1300m 
 -688.00678m   19.7405n  700.0000m  972.9885m -272.9885m 
 -687.90678m   19.7284n  700.0000m  972.8471m -272.8471m 
 -687.80678m   19.7162n  700.0000m  972.7057m -272.7057m 
 -687.70678m   19.7041n  700.0000m  972.5643m -272.5643m 
 -687.60678m   19.6919n  700.0000m  972.4229m -272.4228m 
 -687.50678m   19.6798n  700.0000m  972.2814m -272.2814m 
 -687.40678m   19.6676n  700.0000m  972.1400m -272.1400m 
 -687.30678m   19.6555n  700.0000m  971.9986m -271.9986m 
 -687.20678m   19.6433n  700.0000m  971.8572m -271.8572m 
 -687.10678m   19.6312n  700.0000m  971.7157m -271.7157m 
 -687.00678m   19.6191n  700.0000m  971.5743m -271.5743m 
 -686.90678m   19.6069n  700.0000m  971.4329m -271.4329m 
 -686.80678m   19.5948n  700.0000m  971.2915m -271.2915m 
 -686.70678m   19.5827n  700.0000m  971.1501m -271.1501m 
 -686.60678m   19.5705n  700.0000m  971.0086m -271.0086m 
 -686.50678m   19.5584n  700.0000m  970.8672m -270.8672m 
 -686.40678m   19.5463n  700.0000m  970.7258m -270.7258m 
 -686.30678m   19.5342n  700.0000m  970.5844m -270.5844m 
 -686.20678m   19.5220n  700.0000m  970.4430m -270.4429m 
 -686.10678m   19.5099n  700.0000m  970.3015m -270.3015m 
 -686.00678m   19.4978n  700.0000m  970.1601m -270.1601m 
 -685.90678m   19.4857n  700.0000m  970.0187m -270.0187m 
 -685.80678m   19.4736n  700.0000m  969.8773m -269.8773m 
 -685.70678m   19.4615n  700.0000m  969.7358m -269.7358m 
 -685.60678m   19.4494n  700.0000m  969.5944m -269.5944m 
 -685.50678m   19.4373n  700.0000m  969.4530m -269.4530m 
 -685.40678m   19.4251n  700.0000m  969.3116m -269.3116m 
 -685.30678m   19.4130n  700.0000m  969.1702m -269.1702m 
 -685.20678m   19.4009n  700.0000m  969.0287m -269.0287m 
 -685.10678m   19.3888n  700.0000m  968.8873m -268.8873m 
 -685.00678m   19.3767n  700.0000m  968.7459m -268.7459m 
 -684.90678m   19.3646n  700.0000m  968.6045m -268.6045m 
 -684.80678m   19.3526n  700.0000m  968.4631m -268.4630m 
 -684.70678m   19.3405n  700.0000m  968.3216m -268.3216m 
 -684.60678m   19.3284n  700.0000m  968.1802m -268.1802m 
 -684.50678m   19.3163n  700.0000m  968.0388m -268.0388m 
 -684.40678m   19.3042n  700.0000m  967.8974m -267.8974m 
 -684.30678m   19.2921n  700.0000m  967.7560m -267.7559m 
 -684.20678m   19.2800n  700.0000m  967.6145m -267.6145m 
 -684.10678m   19.2679n  700.0000m  967.4731m -267.4731m 
 -684.00678m   19.2559n  700.0000m  967.3317m -267.3317m 
 -683.90678m   19.2438n  700.0000m  967.1903m -267.1903m 
 -683.80678m   19.2317n  700.0000m  967.0488m -267.0488m 
 -683.70678m   19.2196n  700.0000m  966.9074m -266.9074m 
 -683.60678m   19.2076n  700.0000m  966.7660m -266.7660m 
 -683.50678m   19.1955n  700.0000m  966.6246m -266.6246m 
 -683.40678m   19.1834n  700.0000m  966.4832m -266.4831m 
 -683.30678m   19.1714n  700.0000m  966.3417m -266.3417m 
 -683.20678m   19.1593n  700.0000m  966.2003m -266.2003m 
 -683.10678m   19.1472n  700.0000m  966.0589m -266.0589m 
 -683.00678m   19.1352n  700.0000m  965.9175m -265.9175m 
 -682.90678m   19.1231n  700.0000m  965.7761m -265.7760m 
 -682.80678m   19.1111n  700.0000m  965.6346m -265.6346m 
 -682.70678m   19.0990n  700.0000m  965.4932m -265.4932m 
 -682.60678m   19.0870n  700.0000m  965.3518m -265.3518m 
 -682.50678m   19.0749n  700.0000m  965.2104m -265.2104m 
 -682.40678m   19.0629n  700.0000m  965.0689m -265.0689m 
 -682.30678m   19.0508n  700.0000m  964.9275m -264.9275m 
 -682.20678m   19.0388n  700.0000m  964.7861m -264.7861m 
 -682.10678m   19.0267n  700.0000m  964.6447m -264.6447m 
 -682.00678m   19.0147n  700.0000m  964.5033m -264.5032m 
 -681.90678m   19.0027n  700.0000m  964.3618m -264.3618m 
 -681.80678m   18.9906n  700.0000m  964.2204m -264.2204m 
 -681.70678m   18.9786n  700.0000m  964.0790m -264.0790m 
 -681.60678m   18.9665n  700.0000m  963.9376m -263.9376m 
 -681.50678m   18.9545n  700.0000m  963.7962m -263.7961m 
 -681.40678m   18.9425n  700.0000m  963.6547m -263.6547m 
 -681.30678m   18.9305n  700.0000m  963.5133m -263.5133m 
 -681.20678m   18.9184n  700.0000m  963.3719m -263.3719m 
 -681.10678m   18.9064n  700.0000m  963.2305m -263.2305m 
 -681.00678m   18.8944n  700.0000m  963.0890m -263.0890m 
 -680.90678m   18.8824n  700.0000m  962.9476m -262.9476m 
 -680.80678m   18.8703n  700.0000m  962.8062m -262.8062m 
 -680.70678m   18.8583n  700.0000m  962.6648m -262.6648m 
 -680.60678m   18.8463n  700.0000m  962.5234m -262.5234m 
 -680.50678m   18.8343n  700.0000m  962.3819m -262.3819m 
 -680.40678m   18.8223n  700.0000m  962.2405m -262.2405m 
 -680.30678m   18.8103n  700.0000m  962.0991m -262.0991m 
 -680.20678m   18.7983n  700.0000m  961.9577m -261.9577m 
 -680.10678m   18.7863n  700.0000m  961.8163m -261.8162m 
 -680.00678m   18.7742n  700.0000m  961.6748m -261.6748m 
 -679.90678m   18.7622n  700.0000m  961.5334m -261.5334m 
 -679.80678m   18.7502n  700.0000m  961.3920m -261.3920m 
 -679.70678m   18.7382n  700.0000m  961.2506m -261.2506m 
 -679.60678m   18.7262n  700.0000m  961.1091m -261.1091m 
 -679.50678m   18.7142n  700.0000m  960.9677m -260.9677m 
 -679.40678m   18.7022n  700.0000m  960.8263m -260.8263m 
 -679.30678m   18.6903n  700.0000m  960.6849m -260.6849m 
 -679.20678m   18.6783n  700.0000m  960.5435m -260.5435m 
 -679.10678m   18.6663n  700.0000m  960.4020m -260.4020m 
 -679.00678m   18.6543n  700.0000m  960.2606m -260.2606m 
 -678.90678m   18.6423n  700.0000m  960.1192m -260.1192m 
 -678.80678m   18.6303n  700.0000m  959.9778m -259.9778m 
 -678.70678m   18.6183n  700.0000m  959.8364m -259.8363m 
 -678.60678m   18.6064n  700.0000m  959.6949m -259.6949m 
 -678.50678m   18.5944n  700.0000m  959.5535m -259.5535m 
 -678.40678m   18.5824n  700.0000m  959.4121m -259.4121m 
 -678.30678m   18.5704n  700.0000m  959.2707m -259.2707m 
 -678.20678m   18.5584n  700.0000m  959.1292m -259.1292m 
 -678.10678m   18.5465n  700.0000m  958.9878m -258.9878m 
 -678.00678m   18.5345n  700.0000m  958.8464m -258.8464m 
 -677.90678m   18.5225n  700.0000m  958.7050m -258.7050m 
 -677.80678m   18.5106n  700.0000m  958.5636m -258.5636m 
 -677.70678m   18.4986n  700.0000m  958.4221m -258.4221m 
 -677.60678m   18.4866n  700.0000m  958.2807m -258.2807m 
 -677.50678m   18.4747n  700.0000m  958.1393m -258.1393m 
 -677.40678m   18.4627n  700.0000m  957.9979m -257.9979m 
 -677.30678m   18.4508n  700.0000m  957.8565m -257.8564m 
 -677.20678m   18.4388n  700.0000m  957.7150m -257.7150m 
 -677.10678m   18.4268n  700.0000m  957.5736m -257.5736m 
 -677.00678m   18.4149n  700.0000m  957.4322m -257.4322m 
 -676.90678m   18.4029n  700.0000m  957.2908m -257.2908m 
 -676.80678m   18.3910n  700.0000m  957.1493m -257.1493m 
 -676.70678m   18.3790n  700.0000m  957.0079m -257.0079m 
 -676.60678m   18.3671n  700.0000m  956.8665m -256.8665m 
 -676.50678m   18.3551n  700.0000m  956.7251m -256.7251m 
 -676.40678m   18.3432n  700.0000m  956.5837m -256.5837m 
 -676.30678m   18.3313n  700.0000m  956.4422m -256.4422m 
 -676.20678m   18.3193n  700.0000m  956.3008m -256.3008m 
 -676.10678m   18.3074n  700.0000m  956.1594m -256.1594m 
 -676.00678m   18.2954n  700.0000m  956.0180m -256.0180m 
 -675.90678m   18.2835n  700.0000m  955.8766m -255.8765m 
 -675.80678m   18.2716n  700.0000m  955.7351m -255.7351m 
 -675.70678m   18.2596n  700.0000m  955.5937m -255.5937m 
 -675.60678m   18.2477n  700.0000m  955.4523m -255.4523m 
 -675.50678m   18.2358n  700.0000m  955.3109m -255.3109m 
 -675.40678m   18.2238n  700.0000m  955.1694m -255.1694m 
 -675.30678m   18.2119n  700.0000m  955.0280m -255.0280m 
 -675.20678m   18.2000n  700.0000m  954.8866m -254.8866m 
 -675.10678m   18.1881n  700.0000m  954.7452m -254.7452m 
 -675.00678m   18.1762n  700.0000m  954.6038m -254.6038m 
 -674.90678m   18.1642n  700.0000m  954.4623m -254.4623m 
 -674.80678m   18.1523n  700.0000m  954.3209m -254.3209m 
 -674.70678m   18.1404n  700.0000m  954.1795m -254.1795m 
 -674.60678m   18.1285n  700.0000m  954.0381m -254.0381m 
 -674.50678m   18.1166n  700.0000m  953.8967m -253.8966m 
 -674.40678m   18.1047n  700.0000m  953.7552m -253.7552m 
 -674.30678m   18.0928n  700.0000m  953.6138m -253.6138m 
 -674.20678m   18.0808n  700.0000m  953.4724m -253.4724m 
 -674.10678m   18.0689n  700.0000m  953.3310m -253.3310m 
 -674.00678m   18.0570n  700.0000m  953.1895m -253.1895m 
 -673.90678m   18.0451n  700.0000m  953.0481m -253.0481m 
 -673.80678m   18.0332n  700.0000m  952.9067m -252.9067m 
 -673.70678m   18.0213n  700.0000m  952.7653m -252.7653m 
 -673.60678m   18.0094n  700.0000m  952.6239m -252.6239m 
 -673.50678m   17.9975n  700.0000m  952.4824m -252.4824m 
 -673.40678m   17.9856n  700.0000m  952.3410m -252.3410m 
 -673.30678m   17.9737n  700.0000m  952.1996m -252.1996m 
 -673.20678m   17.9619n  700.0000m  952.0582m -252.0582m 
 -673.10678m   17.9500n  700.0000m  951.9168m -251.9167m 
 -673.00678m   17.9381n  700.0000m  951.7753m -251.7753m 
 -672.90678m   17.9262n  700.0000m  951.6339m -251.6339m 
 -672.80678m   17.9143n  700.0000m  951.4925m -251.4925m 
 -672.70678m   17.9024n  700.0000m  951.3511m -251.3511m 
 -672.60678m   17.8905n  700.0000m  951.2096m -251.2096m 
 -672.50678m   17.8786n  700.0000m  951.0682m -251.0682m 
 -672.40678m   17.8668n  700.0000m  950.9268m -250.9268m 
 -672.30678m   17.8549n  700.0000m  950.7854m -250.7854m 
 -672.20678m   17.8430n  700.0000m  950.6440m -250.6440m 
 -672.10678m   17.8311n  700.0000m  950.5025m -250.5025m 
 -672.00678m   17.8193n  700.0000m  950.3611m -250.3611m 
 -671.90678m   17.8074n  700.0000m  950.2197m -250.2197m 
 -671.80678m   17.7955n  700.0000m  950.0783m -250.0783m 
 -671.70678m   17.7837n  700.0000m  949.9369m -249.9368m 
 -671.60678m   17.7718n  700.0000m  949.7954m -249.7954m 
 -671.50678m   17.7599n  700.0000m  949.6540m -249.6540m 
 -671.40678m   17.7481n  700.0000m  949.5126m -249.5126m 
 -671.30678m   17.7362n  700.0000m  949.3712m -249.3712m 
 -671.20678m   17.7243n  700.0000m  949.2298m -249.2297m 
 -671.10678m   17.7125n  700.0000m  949.0883m -249.0883m 
 -671.00678m   17.7006n  700.0000m  948.9469m -248.9469m 
 -670.90678m   17.6888n  700.0000m  948.8055m -248.8055m 
 -670.80678m   17.6769n  700.0000m  948.6641m -248.6641m 
 -670.70678m   17.6650n  700.0000m  948.5226m -248.5226m 
 -670.60678m   17.6532n  700.0000m  948.3812m -248.3812m 
 -670.50678m   17.6413n  700.0000m  948.2398m -248.2398m 
 -670.40678m   17.6295n  700.0000m  948.0984m -248.0984m 
 -670.30678m   17.6176n  700.0000m  947.9570m -247.9569m 
 -670.20678m   17.6058n  700.0000m  947.8155m -247.8155m 
 -670.10678m   17.5940n  700.0000m  947.6741m -247.6741m 
 -670.00678m   17.5821n  700.0000m  947.5327m -247.5327m 
 -669.90678m   17.5703n  700.0000m  947.3913m -247.3913m 
 -669.80678m   17.5584n  700.0000m  947.2499m -247.2498m 
 -669.70678m   17.5466n  700.0000m  947.1084m -247.1084m 
 -669.60678m   17.5348n  700.0000m  946.9670m -246.9670m 
 -669.50678m   17.5229n  700.0000m  946.8256m -246.8256m 
 -669.40678m   17.5111n  700.0000m  946.6842m -246.6842m 
 -669.30678m   17.4993n  700.0000m  946.5427m -246.5427m 
 -669.20678m   17.4874n  700.0000m  946.4013m -246.4013m 
 -669.10678m   17.4756n  700.0000m  946.2599m -246.2599m 
 -669.00678m   17.4638n  700.0000m  946.1185m -246.1185m 
 -668.90678m   17.4519n  700.0000m  945.9771m -245.9771m 
 -668.80678m   17.4401n  700.0000m  945.8356m -245.8356m 
 -668.70678m   17.4283n  700.0000m  945.6942m -245.6942m 
 -668.60678m   17.4165n  700.0000m  945.5528m -245.5528m 
 -668.50678m   17.4046n  700.0000m  945.4114m -245.4114m 
 -668.40678m   17.3928n  700.0000m  945.2700m -245.2699m 
 -668.30678m   17.3810n  700.0000m  945.1285m -245.1285m 
 -668.20678m   17.3692n  700.0000m  944.9871m -244.9871m 
 -668.10678m   17.3574n  700.0000m  944.8457m -244.8457m 
 -668.00678m   17.3456n  700.0000m  944.7043m -244.7043m 
 -667.90678m   17.3337n  700.0000m  944.5628m -244.5628m 
 -667.80678m   17.3219n  700.0000m  944.4214m -244.4214m 
 -667.70678m   17.3101n  700.0000m  944.2800m -244.2800m 
 -667.60678m   17.2983n  700.0000m  944.1386m -244.1386m 
 -667.50678m   17.2865n  700.0000m  943.9972m -243.9972m 
 -667.40678m   17.2747n  700.0000m  943.8557m -243.8557m 
 -667.30678m   17.2629n  700.0000m  943.7143m -243.7143m 
 -667.20678m   17.2511n  700.0000m  943.5729m -243.5729m 
 -667.10678m   17.2393n  700.0000m  943.4315m -243.4315m 
 -667.00678m   17.2275n  700.0000m  943.2901m -243.2900m 
 -666.90678m   17.2157n  700.0000m  943.1486m -243.1486m 
 -666.80678m   17.2039n  700.0000m  943.0072m -243.0072m 
 -666.70678m   17.1921n  700.0000m  942.8658m -242.8658m 
 -666.60678m   17.1803n  700.0000m  942.7244m -242.7244m 
 -666.50678m   17.1685n  700.0000m  942.5829m -242.5829m 
 -666.40678m   17.1567n  700.0000m  942.4415m -242.4415m 
 -666.30678m   17.1450n  700.0000m  942.3001m -242.3001m 
 -666.20678m   17.1332n  700.0000m  942.1587m -242.1587m 
 -666.10678m   17.1214n  700.0000m  942.0173m -242.0173m 
 -666.00678m   17.1096n  700.0000m  941.8758m -241.8758m 
 -665.90678m   17.0978n  700.0000m  941.7344m -241.7344m 
 -665.80678m   17.0860n  700.0000m  941.5930m -241.5930m 
 -665.70678m   17.0743n  700.0000m  941.4516m -241.4516m 
 -665.60678m   17.0625n  700.0000m  941.3102m -241.3101m 
 -665.50678m   17.0507n  700.0000m  941.1687m -241.1687m 
 -665.40678m   17.0389n  700.0000m  941.0273m -241.0273m 
 -665.30678m   17.0271n  700.0000m  940.8859m -240.8859m 
 -665.20678m   17.0154n  700.0000m  940.7445m -240.7445m 
 -665.10678m   17.0036n  700.0000m  940.6030m -240.6030m 
 -665.00678m   16.9918n  700.0000m  940.4616m -240.4616m 
 -664.90678m   16.9801n  700.0000m  940.3202m -240.3202m 
 -664.80678m   16.9683n  700.0000m  940.1788m -240.1788m 
 -664.70678m   16.9565n  700.0000m  940.0374m -240.0374m 
 -664.60678m   16.9448n  700.0000m  939.8959m -239.8959m 
 -664.50678m   16.9330n  700.0000m  939.7545m -239.7545m 
 -664.40678m   16.9212n  700.0000m  939.6131m -239.6131m 
 -664.30678m   16.9095n  700.0000m  939.4717m -239.4717m 
 -664.20678m   16.8977n  700.0000m  939.3303m -239.3302m 
 -664.10678m   16.8860n  700.0000m  939.1888m -239.1888m 
 -664.00678m   16.8742n  700.0000m  939.0474m -239.0474m 
 -663.90678m   16.8624n  700.0000m  938.9060m -238.9060m 
 -663.80678m   16.8507n  700.0000m  938.7646m -238.7646m 
 -663.70678m   16.8389n  700.0000m  938.6231m -238.6231m 
 -663.60678m   16.8272n  700.0000m  938.4817m -238.4817m 
 -663.50678m   16.8154n  700.0000m  938.3403m -238.3403m 
 -663.40678m   16.8037n  700.0000m  938.1989m -238.1989m 
 -663.30678m   16.7920n  700.0000m  938.0575m -238.0575m 
 -663.20678m   16.7802n  700.0000m  937.9160m -237.9160m 
 -663.10678m   16.7685n  700.0000m  937.7746m -237.7746m 
 -663.00678m   16.7567n  700.0000m  937.6332m -237.6332m 
 -662.90678m   16.7450n  700.0000m  937.4918m -237.4918m 
 -662.80678m   16.7332n  700.0000m  937.3504m -237.3503m 
 -662.70678m   16.7215n  700.0000m  937.2089m -237.2089m 
 -662.60678m   16.7098n  700.0000m  937.0675m -237.0675m 
 -662.50678m   16.6980n  700.0000m  936.9261m -236.9261m 
 -662.40678m   16.6863n  700.0000m  936.7847m -236.7847m 
 -662.30678m   16.6746n  700.0000m  936.6432m -236.6432m 
 -662.20678m   16.6628n  700.0000m  936.5018m -236.5018m 
 -662.10678m   16.6511n  700.0000m  936.3604m -236.3604m 
 -662.00678m   16.6394n  700.0000m  936.2190m -236.2190m 
 -661.90678m   16.6276n  700.0000m  936.0776m -236.0776m 
 -661.80678m   16.6159n  700.0000m  935.9361m -235.9361m 
 -661.70678m   16.6042n  700.0000m  935.7947m -235.7947m 
 -661.60678m   16.5925n  700.0000m  935.6533m -235.6533m 
 -661.50678m   16.5808n  700.0000m  935.5119m -235.5119m 
 -661.40678m   16.5690n  700.0000m  935.3705m -235.3704m 
 -661.30678m   16.5573n  700.0000m  935.2290m -235.2290m 
 -661.20678m   16.5456n  700.0000m  935.0876m -235.0876m 
 -661.10678m   16.5339n  700.0000m  934.9462m -234.9462m 
 -661.00678m   16.5222n  700.0000m  934.8048m -234.8048m 
 -660.90678m   16.5105n  700.0000m  934.6633m -234.6633m 
 -660.80678m   16.4987n  700.0000m  934.5219m -234.5219m 
 -660.70678m   16.4870n  700.0000m  934.3805m -234.3805m 
 -660.60678m   16.4753n  700.0000m  934.2391m -234.2391m 
 -660.50678m   16.4636n  700.0000m  934.0977m -234.0977m 
 -660.40678m   16.4519n  700.0000m  933.9562m -233.9562m 
 -660.30678m   16.4402n  700.0000m  933.8148m -233.8148m 
 -660.20678m   16.4285n  700.0000m  933.6734m -233.6734m 
 -660.10678m   16.4168n  700.0000m  933.5320m -233.5320m 
 -660.00678m   16.4051n  700.0000m  933.3906m -233.3905m 
 -659.90678m   16.3934n  700.0000m  933.2491m -233.2491m 
 -659.80678m   16.3817n  700.0000m  933.1077m -233.1077m 
 -659.70678m   16.3700n  700.0000m  932.9663m -232.9663m 
 -659.60678m   16.3583n  700.0000m  932.8249m -232.8249m 
 -659.50678m   16.3466n  700.0000m  932.6835m -232.6834m 
 -659.40678m   16.3349n  700.0000m  932.5420m -232.5420m 
 -659.30678m   16.3232n  700.0000m  932.4006m -232.4006m 
 -659.20678m   16.3116n  700.0000m  932.2592m -232.2592m 
 -659.10678m   16.2999n  700.0000m  932.1178m -232.1178m 
 -659.00678m   16.2882n  700.0000m  931.9763m -231.9763m 
 -658.90678m   16.2765n  700.0000m  931.8349m -231.8349m 
 -658.80678m   16.2648n  700.0000m  931.6935m -231.6935m 
 -658.70678m   16.2531n  700.0000m  931.5521m -231.5521m 
 -658.60678m   16.2414n  700.0000m  931.4107m -231.4107m 
 -658.50678m   16.2298n  700.0000m  931.2692m -231.2692m 
 -658.40678m   16.2181n  700.0000m  931.1278m -231.1278m 
 -658.30678m   16.2064n  700.0000m  930.9864m -230.9864m 
 -658.20678m   16.1947n  700.0000m  930.8450m -230.8450m 
 -658.10678m   16.1831n  700.0000m  930.7036m -230.7035m 
 -658.00678m   16.1714n  700.0000m  930.5621m -230.5621m 
 -657.90678m   16.1597n  700.0000m  930.4207m -230.4207m 
 -657.80678m   16.1480n  700.0000m  930.2793m -230.2793m 
 -657.70678m   16.1364n  700.0000m  930.1379m -230.1379m 
 -657.60678m   16.1247n  700.0000m  929.9964m -229.9964m 
 -657.50678m   16.1130n  700.0000m  929.8550m -229.8550m 
 -657.40678m   16.1014n  700.0000m  929.7136m -229.7136m 
 -657.30678m   16.0897n  700.0000m  929.5722m -229.5722m 
 -657.20678m   16.0781n  700.0000m  929.4308m -229.4308m 
 -657.10678m   16.0664n  700.0000m  929.2893m -229.2893m 
 -657.00678m   16.0547n  700.0000m  929.1479m -229.1479m 
 -656.90678m   16.0431n  700.0000m  929.0065m -229.0065m 
 -656.80678m   16.0314n  700.0000m  928.8651m -228.8651m 
 -656.70678m   16.0198n  700.0000m  928.7237m -228.7236m 
 -656.60678m   16.0081n  700.0000m  928.5822m -228.5822m 
 -656.50678m   15.9965n  700.0000m  928.4408m -228.4408m 
 -656.40678m   15.9848n  700.0000m  928.2994m -228.2994m 
 -656.30678m   15.9732n  700.0000m  928.1580m -228.1580m 
 -656.20678m   15.9615n  700.0000m  928.0165m -228.0165m 
 -656.10678m   15.9499n  700.0000m  927.8751m -227.8751m 
 -656.00678m   15.9382n  700.0000m  927.7337m -227.7337m 
 -655.90678m   15.9266n  700.0000m  927.5923m -227.5923m 
 -655.80678m   15.9149n  700.0000m  927.4509m -227.4509m 
 -655.70678m   15.9033n  700.0000m  927.3094m -227.3094m 
 -655.60678m   15.8917n  700.0000m  927.1680m -227.1680m 
 -655.50678m   15.8800n  700.0000m  927.0266m -227.0266m 
 -655.40678m   15.8684n  700.0000m  926.8852m -226.8852m 
 -655.30678m   15.8568n  700.0000m  926.7438m -226.7437m 
 -655.20678m   15.8451n  700.0000m  926.6023m -226.6023m 
 -655.10678m   15.8335n  700.0000m  926.4609m -226.4609m 
 -655.00678m   15.8219n  700.0000m  926.3195m -226.3195m 
 -654.90678m   15.8103n  700.0000m  926.1781m -226.1781m 
 -654.80678m   15.7987n  700.0000m  926.0366m -226.0366m 
 -654.70678m   15.7871n  700.0000m  925.8952m -225.8952m 
 -654.60678m   15.7755n  700.0000m  925.7538m -225.7538m 
 -654.50678m   15.7639n  700.0000m  925.6124m -225.6124m 
 -654.40678m   15.7523n  700.0000m  925.4710m -225.4710m 
 -654.30678m   15.7407n  700.0000m  925.3295m -225.3295m 
 -654.20678m   15.7291n  700.0000m  925.1881m -225.1881m 
 -654.10678m   15.7175n  700.0000m  925.0467m -225.0467m 
 -654.00678m   15.7059n  700.0000m  924.9053m -224.9053m 
 -653.90678m   15.6943n  700.0000m  924.7639m -224.7638m 
 -653.80678m   15.6827n  700.0000m  924.6224m -224.6224m 
 -653.70678m   15.6711n  700.0000m  924.4810m -224.4810m 
 -653.60678m   15.6595n  700.0000m  924.3396m -224.3396m 
 -653.50678m   15.6479n  700.0000m  924.1982m -224.1982m 
 -653.40678m   15.6363n  700.0000m  924.0567m -224.0567m 
 -653.30678m   15.6247n  700.0000m  923.9153m -223.9153m 
 -653.20678m   15.6131n  700.0000m  923.7739m -223.7739m 
 -653.10678m   15.6015n  700.0000m  923.6325m -223.6325m 
 -653.00678m   15.5900n  700.0000m  923.4911m -223.4911m 
 -652.90678m   15.5784n  700.0000m  923.3496m -223.3496m 
 -652.80678m   15.5668n  700.0000m  923.2082m -223.2082m 
 -652.70678m   15.5552n  700.0000m  923.0668m -223.0668m 
 -652.60678m   15.5436n  700.0000m  922.9254m -222.9254m 
 -652.50678m   15.5321n  700.0000m  922.7840m -222.7839m 
 -652.40678m   15.5205n  700.0000m  922.6425m -222.6425m 
 -652.30678m   15.5089n  700.0000m  922.5011m -222.5011m 
 -652.20678m   15.4973n  700.0000m  922.3597m -222.3597m 
 -652.10678m   15.4858n  700.0000m  922.2183m -222.2183m 
 -652.00678m   15.4742n  700.0000m  922.0768m -222.0768m 
 -651.90678m   15.4626n  700.0000m  921.9354m -221.9354m 
 -651.80678m   15.4511n  700.0000m  921.7940m -221.7940m 
 -651.70678m   15.4395n  700.0000m  921.6526m -221.6526m 
 -651.60678m   15.4279n  700.0000m  921.5112m -221.5112m 
 -651.50678m   15.4164n  700.0000m  921.3697m -221.3697m 
 -651.40678m   15.4048n  700.0000m  921.2283m -221.2283m 
 -651.30678m   15.3933n  700.0000m  921.0869m -221.0869m 
 -651.20678m   15.3817n  700.0000m  920.9455m -220.9455m 
 -651.10678m   15.3702n  700.0000m  920.8041m -220.8040m 
 -651.00678m   15.3586n  700.0000m  920.6626m -220.6626m 
 -650.90678m   15.3470n  700.0000m  920.5212m -220.5212m 
 -650.80678m   15.3355n  700.0000m  920.3798m -220.3798m 
 -650.70678m   15.3239n  700.0000m  920.2384m -220.2384m 
 -650.60678m   15.3124n  700.0000m  920.0969m -220.0969m 
 -650.50678m   15.3009n  700.0000m  919.9555m -219.9555m 
 -650.40678m   15.2893n  700.0000m  919.8141m -219.8141m 
 -650.30678m   15.2778n  700.0000m  919.6727m -219.6727m 
 -650.20678m   15.2662n  700.0000m  919.5313m -219.5313m 
 -650.10678m   15.2547n  700.0000m  919.3898m -219.3898m 
 -650.00678m   15.2432n  700.0000m  919.2484m -219.2484m 
 -649.90678m   15.2316n  700.0000m  919.1070m -219.1070m 
 -649.80678m   15.2201n  700.0000m  918.9656m -218.9656m 
 -649.70678m   15.2086n  700.0000m  918.8242m -218.8241m 
 -649.60678m   15.1970n  700.0000m  918.6827m -218.6827m 
 -649.50678m   15.1855n  700.0000m  918.5413m -218.5413m 
 -649.40678m   15.1740n  700.0000m  918.3999m -218.3999m 
 -649.30678m   15.1624n  700.0000m  918.2585m -218.2585m 
 -649.20678m   15.1509n  700.0000m  918.1170m -218.1170m 
 -649.10678m   15.1394n  700.0000m  917.9756m -217.9756m 
 -649.00678m   15.1279n  700.0000m  917.8342m -217.8342m 
 -648.90678m   15.1164n  700.0000m  917.6928m -217.6928m 
 -648.80678m   15.1048n  700.0000m  917.5514m -217.5514m 
 -648.70678m   15.0933n  700.0000m  917.4099m -217.4099m 
 -648.60678m   15.0818n  700.0000m  917.2685m -217.2685m 
 -648.50678m   15.0703n  700.0000m  917.1271m -217.1271m 
 -648.40678m   15.0588n  700.0000m  916.9857m -216.9857m 
 -648.30678m   15.0473n  700.0000m  916.8443m -216.8442m 
 -648.20678m   15.0358n  700.0000m  916.7028m -216.7028m 
 -648.10678m   15.0243n  700.0000m  916.5614m -216.5614m 
 -648.00678m   15.0128n  700.0000m  916.4200m -216.4200m 
 -647.90678m   15.0012n  700.0000m  916.2786m -216.2786m 
 -647.80678m   14.9897n  700.0000m  916.1372m -216.1371m 
 -647.70678m   14.9782n  700.0000m  915.9957m -215.9957m 
 -647.60678m   14.9667n  700.0000m  915.8543m -215.8543m 
 -647.50678m   14.9553n  700.0000m  915.7129m -215.7129m 
 -647.40678m   14.9438n  700.0000m  915.5715m -215.5715m 
 -647.30678m   14.9323n  700.0000m  915.4300m -215.4300m 
 -647.20678m   14.9208n  700.0000m  915.2886m -215.2886m 
 -647.10678m   14.9093n  700.0000m  915.1472m -215.1472m 
 -647.00678m   14.8978n  700.0000m  915.0058m -215.0058m 
 -646.90678m   14.8863n  700.0000m  914.8644m -214.8644m 
 -646.80678m   14.8748n  700.0000m  914.7229m -214.7229m 
 -646.70678m   14.8633n  700.0000m  914.5815m -214.5815m 
 -646.60678m   14.8519n  700.0000m  914.4401m -214.4401m 
 -646.50678m   14.8404n  700.0000m  914.2987m -214.2987m 
 -646.40678m   14.8289n  700.0000m  914.1573m -214.1572m 
 -646.30678m   14.8174n  700.0000m  914.0158m -214.0158m 
 -646.20678m   14.8060n  700.0000m  913.8744m -213.8744m 
 -646.10678m   14.7945n  700.0000m  913.7330m -213.7330m 
 -646.00678m   14.7830n  700.0000m  913.5916m -213.5916m 
 -645.90678m   14.7715n  700.0000m  913.4501m -213.4501m 
 -645.80678m   14.7601n  700.0000m  913.3087m -213.3087m 
 -645.70678m   14.7486n  700.0000m  913.1673m -213.1673m 
 -645.60678m   14.7371n  700.0000m  913.0259m -213.0259m 
 -645.50678m   14.7257n  700.0000m  912.8845m -212.8845m 
 -645.40678m   14.7142n  700.0000m  912.7430m -212.7430m 
 -645.30678m   14.7028n  700.0000m  912.6016m -212.6016m 
 -645.20678m   14.6913n  700.0000m  912.4602m -212.4602m 
 -645.10678m   14.6798n  700.0000m  912.3188m -212.3188m 
 -645.00678m   14.6684n  700.0000m  912.1774m -212.1773m 
 -644.90678m   14.6569n  700.0000m  912.0359m -212.0359m 
 -644.80678m   14.6455n  700.0000m  911.8945m -211.8945m 
 -644.70678m   14.6340n  700.0000m  911.7531m -211.7531m 
 -644.60678m   14.6226n  700.0000m  911.6117m -211.6117m 
 -644.50678m   14.6112n  700.0000m  911.4702m -211.4702m 
 -644.40678m   14.5997n  700.0000m  911.3288m -211.3288m 
 -644.30678m   14.5883n  700.0000m  911.1874m -211.1874m 
 -644.20678m   14.5768n  700.0000m  911.0460m -211.0460m 
 -644.10678m   14.5654n  700.0000m  910.9046m -210.9046m 
 -644.00678m   14.5540n  700.0000m  910.7631m -210.7631m 
 -643.90678m   14.5425n  700.0000m  910.6217m -210.6217m 
 -643.80678m   14.5311n  700.0000m  910.4803m -210.4803m 
 -643.70678m   14.5197n  700.0000m  910.3389m -210.3389m 
 -643.60678m   14.5082n  700.0000m  910.1975m -210.1974m 
 -643.50678m   14.4968n  700.0000m  910.0560m -210.0560m 
 -643.40678m   14.4854n  700.0000m  909.9146m -209.9146m 
 -643.30678m   14.4740n  700.0000m  909.7732m -209.7732m 
 -643.20678m   14.4625n  700.0000m  909.6318m -209.6318m 
 -643.10678m   14.4511n  700.0000m  909.4903m -209.4903m 
 -643.00678m   14.4397n  700.0000m  909.3489m -209.3489m 
 -642.90678m   14.4283n  700.0000m  909.2075m -209.2075m 
 -642.80678m   14.4169n  700.0000m  909.0661m -209.0661m 
 -642.70678m   14.4055n  700.0000m  908.9247m -208.9247m 
 -642.60678m   14.3941n  700.0000m  908.7832m -208.7832m 
 -642.50678m   14.3826n  700.0000m  908.6418m -208.6418m 
 -642.40678m   14.3712n  700.0000m  908.5004m -208.5004m 
 -642.30678m   14.3598n  700.0000m  908.3590m -208.3590m 
 -642.20678m   14.3484n  700.0000m  908.2176m -208.2175m 
 -642.10678m   14.3370n  700.0000m  908.0761m -208.0761m 
 -642.00678m   14.3256n  700.0000m  907.9347m -207.9347m 
 -641.90678m   14.3142n  700.0000m  907.7933m -207.7933m 
 -641.80678m   14.3028n  700.0000m  907.6519m -207.6519m 
 -641.70678m   14.2914n  700.0000m  907.5104m -207.5104m 
 -641.60678m   14.2801n  700.0000m  907.3690m -207.3690m 
 -641.50678m   14.2687n  700.0000m  907.2276m -207.2276m 
 -641.40678m   14.2573n  700.0000m  907.0862m -207.0862m 
 -641.30678m   14.2459n  700.0000m  906.9448m -206.9448m 
 -641.20678m   14.2345n  700.0000m  906.8033m -206.8033m 
 -641.10678m   14.2231n  700.0000m  906.6619m -206.6619m 
 -641.00678m   14.2118n  700.0000m  906.5205m -206.5205m 
 -640.90678m   14.2004n  700.0000m  906.3791m -206.3791m 
 -640.80678m   14.1890n  700.0000m  906.2377m -206.2376m 
 -640.70678m   14.1776n  700.0000m  906.0962m -206.0962m 
 -640.60678m   14.1663n  700.0000m  905.9548m -205.9548m 
 -640.50678m   14.1549n  700.0000m  905.8134m -205.8134m 
 -640.40678m   14.1435n  700.0000m  905.6720m -205.6720m 
 -640.30678m   14.1322n  700.0000m  905.5305m -205.5305m 
 -640.20678m   14.1208n  700.0000m  905.3891m -205.3891m 
 -640.10678m   14.1094n  700.0000m  905.2477m -205.2477m 
 -640.00678m   14.0981n  700.0000m  905.1063m -205.1063m 
 -639.90678m   14.0867n  700.0000m  904.9649m -204.9649m 
 -639.80678m   14.0754n  700.0000m  904.8234m -204.8234m 
 -639.70678m   14.0640n  700.0000m  904.6820m -204.6820m 
 -639.60678m   14.0527n  700.0000m  904.5406m -204.5406m 
 -639.50678m   14.0413n  700.0000m  904.3992m -204.3992m 
 -639.40678m   14.0300n  700.0000m  904.2578m -204.2577m 
 -639.30678m   14.0186n  700.0000m  904.1163m -204.1163m 
 -639.20678m   14.0073n  700.0000m  903.9749m -203.9749m 
 -639.10678m   13.9959n  700.0000m  903.8335m -203.8335m 
 -639.00678m   13.9846n  700.0000m  903.6921m -203.6921m 
 -638.90678m   13.9733n  700.0000m  903.5506m -203.5506m 
 -638.80678m   13.9619n  700.0000m  903.4092m -203.4092m 
 -638.70678m   13.9506n  700.0000m  903.2678m -203.2678m 
 -638.60678m   13.9393n  700.0000m  903.1264m -203.1264m 
 -638.50678m   13.9280n  700.0000m  902.9850m -202.9850m 
 -638.40678m   13.9166n  700.0000m  902.8435m -202.8435m 
 -638.30678m   13.9053n  700.0000m  902.7021m -202.7021m 
 -638.20678m   13.8940n  700.0000m  902.5607m -202.5607m 
 -638.10678m   13.8827n  700.0000m  902.4193m -202.4193m 
 -638.00678m   13.8714n  700.0000m  902.2779m -202.2778m 
 -637.90678m   13.8600n  700.0000m  902.1364m -202.1364m 
 -637.80678m   13.8487n  700.0000m  901.9950m -201.9950m 
 -637.70678m   13.8374n  700.0000m  901.8536m -201.8536m 
 -637.60678m   13.8261n  700.0000m  901.7122m -201.7122m 
 -637.50678m   13.8148n  700.0000m  901.5707m -201.5707m 
 -637.40678m   13.8035n  700.0000m  901.4293m -201.4293m 
 -637.30678m   13.7922n  700.0000m  901.2879m -201.2879m 
 -637.20678m   13.7809n  700.0000m  901.1465m -201.1465m 
 -637.10678m   13.7696n  700.0000m  901.0051m -201.0051m 
 -637.00678m   13.7583n  700.0000m  900.8636m -200.8636m 
 -636.90678m   13.7470n  700.0000m  900.7222m -200.7222m 
 -636.80678m   13.7357n  700.0000m  900.5808m -200.5808m 
 -636.70678m   13.7244n  700.0000m  900.4394m -200.4394m 
 -636.60678m   13.7132n  700.0000m  900.2980m -200.2980m 
 -636.50678m   13.7019n  700.0000m  900.1565m -200.1565m 
 -636.40678m   13.6906n  700.0000m  900.0151m -200.0151m 
 -636.30678m   13.6793n  700.0000m  899.8737m -199.8737m 
 -636.20678m   13.6680n  700.0000m  899.7323m -199.7323m 
 -636.10678m   13.6568n  700.0000m  899.5909m -199.5908m 
 -636.00678m   13.6455n  700.0000m  899.4494m -199.4494m 
 -635.90678m   13.6342n  700.0000m  899.3080m -199.3080m 
 -635.80678m   13.6230n  700.0000m  899.1666m -199.1666m 
 -635.70678m   13.6117n  700.0000m  899.0252m -199.0252m 
 -635.60678m   13.6004n  700.0000m  898.8837m -198.8837m 
 -635.50678m   13.5892n  700.0000m  898.7423m -198.7423m 
 -635.40678m   13.5779n  700.0000m  898.6009m -198.6009m 
 -635.30678m   13.5667n  700.0000m  898.4595m -198.4595m 
 -635.20678m   13.5554n  700.0000m  898.3181m -198.3181m 
 -635.10678m   13.5442n  700.0000m  898.1766m -198.1766m 
 -635.00678m   13.5329n  700.0000m  898.0352m -198.0352m 
 -634.90678m   13.5217n  700.0000m  897.8938m -197.8938m 
 -634.80678m   13.5104n  700.0000m  897.7524m -197.7524m 
 -634.70678m   13.4992n  700.0000m  897.6110m -197.6109m 
 -634.60678m   13.4880n  700.0000m  897.4695m -197.4695m 
 -634.50678m   13.4767n  700.0000m  897.3281m -197.3281m 
 -634.40678m   13.4655n  700.0000m  897.1867m -197.1867m 
 -634.30678m   13.4543n  700.0000m  897.0453m -197.0453m 
 -634.20678m   13.4430n  700.0000m  896.9038m -196.9038m 
 -634.10678m   13.4318n  700.0000m  896.7624m -196.7624m 
 -634.00678m   13.4206n  700.0000m  896.6210m -196.6210m 
 -633.90678m   13.4094n  700.0000m  896.4796m -196.4796m 
 -633.80678m   13.3982n  700.0000m  896.3382m -196.3382m 
 -633.70678m   13.3869n  700.0000m  896.1967m -196.1967m 
 -633.60678m   13.3757n  700.0000m  896.0553m -196.0553m 
 -633.50678m   13.3645n  700.0000m  895.9139m -195.9139m 
 -633.40678m   13.3533n  700.0000m  895.7725m -195.7725m 
 -633.30678m   13.3421n  700.0000m  895.6311m -195.6310m 
 -633.20678m   13.3309n  700.0000m  895.4896m -195.4896m 
 -633.10678m   13.3197n  700.0000m  895.3482m -195.3482m 
 -633.00678m   13.3085n  700.0000m  895.2068m -195.2068m 
 -632.90678m   13.2973n  700.0000m  895.0654m -195.0654m 
 -632.80678m   13.2861n  700.0000m  894.9239m -194.9239m 
 -632.70678m   13.2749n  700.0000m  894.7825m -194.7825m 
 -632.60678m   13.2638n  700.0000m  894.6411m -194.6411m 
 -632.50678m   13.2526n  700.0000m  894.4997m -194.4997m 
 -632.40678m   13.2414n  700.0000m  894.3583m -194.3583m 
 -632.30678m   13.2302n  700.0000m  894.2168m -194.2168m 
 -632.20678m   13.2190n  700.0000m  894.0754m -194.0754m 
 -632.10678m   13.2079n  700.0000m  893.9340m -193.9340m 
 -632.00678m   13.1967n  700.0000m  893.7926m -193.7926m 
 -631.90678m   13.1855n  700.0000m  893.6512m -193.6511m 
 -631.80678m   13.1744n  700.0000m  893.5097m -193.5097m 
 -631.70678m   13.1632n  700.0000m  893.3683m -193.3683m 
 -631.60678m   13.1521n  700.0000m  893.2269m -193.2269m 
 -631.50678m   13.1409n  700.0000m  893.0855m -193.0855m 
 -631.40678m   13.1298n  700.0000m  892.9440m -192.9440m 
 -631.30678m   13.1186n  700.0000m  892.8026m -192.8026m 
 -631.20678m   13.1075n  700.0000m  892.6612m -192.6612m 
 -631.10678m   13.0963n  700.0000m  892.5198m -192.5198m 
 -631.00678m   13.0852n  700.0000m  892.3784m -192.3784m 
 -630.90678m   13.0740n  700.0000m  892.2369m -192.2369m 
 -630.80678m   13.0629n  700.0000m  892.0955m -192.0955m 
 -630.70678m   13.0518n  700.0000m  891.9541m -191.9541m 
 -630.60678m   13.0406n  700.0000m  891.8127m -191.8127m 
 -630.50678m   13.0295n  700.0000m  891.6713m -191.6712m 
 -630.40678m   13.0184n  700.0000m  891.5298m -191.5298m 
 -630.30678m   13.0073n  700.0000m  891.3884m -191.3884m 
 -630.20678m   12.9961n  700.0000m  891.2470m -191.2470m 
 -630.10678m   12.9850n  700.0000m  891.1056m -191.1056m 
 -630.00678m   12.9739n  700.0000m  890.9641m -190.9641m 
 -629.90678m   12.9628n  700.0000m  890.8227m -190.8227m 
 -629.80678m   12.9517n  700.0000m  890.6813m -190.6813m 
 -629.70678m   12.9406n  700.0000m  890.5399m -190.5399m 
 -629.60678m   12.9295n  700.0000m  890.3985m -190.3985m 
 -629.50678m   12.9184n  700.0000m  890.2570m -190.2570m 
 -629.40678m   12.9073n  700.0000m  890.1156m -190.1156m 
 -629.30678m   12.8962n  700.0000m  889.9742m -189.9742m 
 -629.20678m   12.8851n  700.0000m  889.8328m -189.8328m 
 -629.10678m   12.8741n  700.0000m  889.6914m -189.6913m 
 -629.00678m   12.8630n  700.0000m  889.5499m -189.5499m 
 -628.90678m   12.8519n  700.0000m  889.4085m -189.4085m 
 -628.80678m   12.8408n  700.0000m  889.2671m -189.2671m 
 -628.70678m   12.8297n  700.0000m  889.1257m -189.1257m 
 -628.60678m   12.8187n  700.0000m  888.9842m -188.9842m 
 -628.50678m   12.8076n  700.0000m  888.8428m -188.8428m 
 -628.40678m   12.7966n  700.0000m  888.7014m -188.7014m 
 -628.30678m   12.7855n  700.0000m  888.5600m -188.5600m 
 -628.20678m   12.7744n  700.0000m  888.4186m -188.4186m 
 -628.10678m   12.7634n  700.0000m  888.2771m -188.2771m 
 -628.00678m   12.7523n  700.0000m  888.1357m -188.1357m 
 -627.90678m   12.7413n  700.0000m  887.9943m -187.9943m 
 -627.80678m   12.7302n  700.0000m  887.8529m -187.8529m 
 -627.70678m   12.7192n  700.0000m  887.7115m -187.7114m 
 -627.60678m   12.7082n  700.0000m  887.5700m -187.5700m 
 -627.50678m   12.6971n  700.0000m  887.4286m -187.4286m 
 -627.40678m   12.6861n  700.0000m  887.2872m -187.2872m 
 -627.30678m   12.6751n  700.0000m  887.1458m -187.1458m 
 -627.20678m   12.6641n  700.0000m  887.0043m -187.0043m 
 -627.10678m   12.6530n  700.0000m  886.8629m -186.8629m 
 -627.00678m   12.6420n  700.0000m  886.7215m -186.7215m 
 -626.90678m   12.6310n  700.0000m  886.5801m -186.5801m 
 -626.80678m   12.6200n  700.0000m  886.4387m -186.4387m 
 -626.70678m   12.6090n  700.0000m  886.2972m -186.2972m 
 -626.60678m   12.5980n  700.0000m  886.1558m -186.1558m 
 -626.50678m   12.5870n  700.0000m  886.0144m -186.0144m 
 -626.40678m   12.5760n  700.0000m  885.8730m -185.8730m 
 -626.30678m   12.5650n  700.0000m  885.7316m -185.7316m 
 -626.20678m   12.5540n  700.0000m  885.5901m -185.5901m 
 -626.10678m   12.5430n  700.0000m  885.4487m -185.4487m 
 -626.00678m   12.5321n  700.0000m  885.3073m -185.3073m 
 -625.90678m   12.5211n  700.0000m  885.1659m -185.1659m 
 -625.80678m   12.5101n  700.0000m  885.0244m -185.0244m 
 -625.70678m   12.4991n  700.0000m  884.8830m -184.8830m 
 -625.60678m   12.4882n  700.0000m  884.7416m -184.7416m 
 -625.50678m   12.4772n  700.0000m  884.6002m -184.6002m 
 -625.40678m   12.4662n  700.0000m  884.4588m -184.4588m 
 -625.30678m   12.4553n  700.0000m  884.3173m -184.3173m 
 -625.20678m   12.4443n  700.0000m  884.1759m -184.1759m 
 -625.10678m   12.4334n  700.0000m  884.0345m -184.0345m 
 -625.00678m   12.4224n  700.0000m  883.8931m -183.8931m 
 -624.90678m   12.4115n  700.0000m  883.7517m -183.7517m 
 -624.80678m   12.4006n  700.0000m  883.6102m -183.6102m 
 -624.70678m   12.3896n  700.0000m  883.4688m -183.4688m 
 -624.60678m   12.3787n  700.0000m  883.3274m -183.3274m 
 -624.50678m   12.3678n  700.0000m  883.1860m -183.1860m 
 -624.40678m   12.3568n  700.0000m  883.0446m -183.0445m 
 -624.30678m   12.3459n  700.0000m  882.9031m -182.9031m 
 -624.20678m   12.3350n  700.0000m  882.7617m -182.7617m 
 -624.10678m   12.3241n  700.0000m  882.6203m -182.6203m 
 -624.00678m   12.3132n  700.0000m  882.4789m -182.4789m 
 -623.90678m   12.3023n  700.0000m  882.3374m -182.3374m 
 -623.80678m   12.2914n  700.0000m  882.1960m -182.1960m 
 -623.70678m   12.2805n  700.0000m  882.0546m -182.0546m 
 -623.60678m   12.2696n  700.0000m  881.9132m -181.9132m 
 -623.50678m   12.2587n  700.0000m  881.7718m -181.7718m 
 -623.40678m   12.2478n  700.0000m  881.6303m -181.6303m 
 -623.30678m   12.2370n  700.0000m  881.4889m -181.4889m 
 -623.20678m   12.2261n  700.0000m  881.3475m -181.3475m 
 -623.10678m   12.2152n  700.0000m  881.2061m -181.2061m 
 -623.00678m   12.2043n  700.0000m  881.0647m -181.0646m 
 -622.90678m   12.1935n  700.0000m  880.9232m -180.9232m 
 -622.80678m   12.1826n  700.0000m  880.7818m -180.7818m 
 -622.70678m   12.1718n  700.0000m  880.6404m -180.6404m 
 -622.60678m   12.1609n  700.0000m  880.4990m -180.4990m 
 -622.50678m   12.1501n  700.0000m  880.3575m -180.3575m 
 -622.40678m   12.1392n  700.0000m  880.2161m -180.2161m 
 -622.30678m   12.1284n  700.0000m  880.0747m -180.0747m 
 -622.20678m   12.1175n  700.0000m  879.9333m -179.9333m 
 -622.10678m   12.1067n  700.0000m  879.7919m -179.7919m 
 -622.00678m   12.0959n  700.0000m  879.6504m -179.6504m 
 -621.90678m   12.0851n  700.0000m  879.5090m -179.5090m 
 -621.80678m   12.0742n  700.0000m  879.3676m -179.3676m 
 -621.70678m   12.0634n  700.0000m  879.2262m -179.2262m 
 -621.60678m   12.0526n  700.0000m  879.0848m -179.0847m 
 -621.50678m   12.0418n  700.0000m  878.9433m -178.9433m 
 -621.40678m   12.0310n  700.0000m  878.8019m -178.8019m 
 -621.30678m   12.0202n  700.0000m  878.6605m -178.6605m 
 -621.20678m   12.0094n  700.0000m  878.5191m -178.5191m 
 -621.10678m   11.9986n  700.0000m  878.3776m -178.3776m 
 -621.00678m   11.9879n  700.0000m  878.2362m -178.2362m 
 -620.90678m   11.9771n  700.0000m  878.0948m -178.0948m 
 -620.80678m   11.9663n  700.0000m  877.9534m -177.9534m 
 -620.70678m   11.9555n  700.0000m  877.8120m -177.8120m 
 -620.60678m   11.9448n  700.0000m  877.6705m -177.6705m 
 -620.50678m   11.9340n  700.0000m  877.5291m -177.5291m 
 -620.40678m   11.9233n  700.0000m  877.3877m -177.3877m 
 -620.30678m   11.9125n  700.0000m  877.2463m -177.2463m 
 -620.20678m   11.9018n  700.0000m  877.1049m -177.1048m 
 -620.10678m   11.8910n  700.0000m  876.9634m -176.9634m 
 -620.00678m   11.8803n  700.0000m  876.8220m -176.8220m 
 -619.90678m   11.8695n  700.0000m  876.6806m -176.6806m 
 -619.80678m   11.8588n  700.0000m  876.5392m -176.5392m 
 -619.70678m   11.8481n  700.0000m  876.3977m -176.3977m 
 -619.60678m   11.8374n  700.0000m  876.2563m -176.2563m 
 -619.50678m   11.8267n  700.0000m  876.1149m -176.1149m 
 -619.40678m   11.8159n  700.0000m  875.9735m -175.9735m 
 -619.30678m   11.8052n  700.0000m  875.8321m -175.8321m 
 -619.20678m   11.7945n  700.0000m  875.6906m -175.6906m 
 -619.10678m   11.7838n  700.0000m  875.5492m -175.5492m 
 -619.00678m   11.7732n  700.0000m  875.4078m -175.4078m 
 -618.90678m   11.7625n  700.0000m  875.2664m -175.2664m 
 -618.80678m   11.7518n  700.0000m  875.1250m -175.1249m 
 -618.70678m   11.7411n  700.0000m  874.9835m -174.9835m 
 -618.60678m   11.7304n  700.0000m  874.8421m -174.8421m 
 -618.50678m   11.7198n  700.0000m  874.7007m -174.7007m 
 -618.40678m   11.7091n  700.0000m  874.5593m -174.5593m 
 -618.30678m   11.6985n  700.0000m  874.4178m -174.4178m 
 -618.20678m   11.6878n  700.0000m  874.2764m -174.2764m 
 -618.10678m   11.6772n  700.0000m  874.1350m -174.1350m 
 -618.00678m   11.6665n  700.0000m  873.9936m -173.9936m 
 -617.90678m   11.6559n  700.0000m  873.8522m -173.8522m 
 -617.80678m   11.6453n  700.0000m  873.7107m -173.7107m 
 -617.70678m   11.6346n  700.0000m  873.5693m -173.5693m 
 -617.60678m   11.6240n  700.0000m  873.4279m -173.4279m 
 -617.50678m   11.6134n  700.0000m  873.2865m -173.2865m 
 -617.40678m   11.6028n  700.0000m  873.1451m -173.1450m 
 -617.30678m   11.5922n  700.0000m  873.0036m -173.0036m 
 -617.20678m   11.5816n  700.0000m  872.8622m -172.8622m 
 -617.10678m   11.5710n  700.0000m  872.7208m -172.7208m 
 -617.00678m   11.5604n  700.0000m  872.5794m -172.5794m 
 -616.90678m   11.5498n  700.0000m  872.4379m -172.4379m 
 -616.80678m   11.5392n  700.0000m  872.2965m -172.2965m 
 -616.70678m   11.5287n  700.0000m  872.1551m -172.1551m 
 -616.60678m   11.5181n  700.0000m  872.0137m -172.0137m 
 -616.50678m   11.5075n  700.0000m  871.8723m -171.8723m 
 -616.40678m   11.4970n  700.0000m  871.7308m -171.7308m 
 -616.30678m   11.4864n  700.0000m  871.5894m -171.5894m 
 -616.20678m   11.4759n  700.0000m  871.4480m -171.4480m 
 -616.10678m   11.4653n  700.0000m  871.3066m -171.3066m 
 -616.00678m   11.4548n  700.0000m  871.1652m -171.1651m 
 -615.90678m   11.4443n  700.0000m  871.0237m -171.0237m 
 -615.80678m   11.4337n  700.0000m  870.8823m -170.8823m 
 -615.70678m   11.4232n  700.0000m  870.7409m -170.7409m 
 -615.60678m   11.4127n  700.0000m  870.5995m -170.5995m 
 -615.50678m   11.4022n  700.0000m  870.4580m -170.4580m 
 -615.40678m   11.3917n  700.0000m  870.3166m -170.3166m 
 -615.30678m   11.3812n  700.0000m  870.1752m -170.1752m 
 -615.20678m   11.3707n  700.0000m  870.0338m -170.0338m 
 -615.10678m   11.3602n  700.0000m  869.8924m -169.8924m 
 -615.00678m   11.3498n  700.0000m  869.7509m -169.7509m 
 -614.90678m   11.3393n  700.0000m  869.6095m -169.6095m 
 -614.80678m   11.3288n  700.0000m  869.4681m -169.4681m 
 -614.70678m   11.3184n  700.0000m  869.3267m -169.3267m 
 -614.60678m   11.3079n  700.0000m  869.1853m -169.1853m 
 -614.50678m   11.2975n  700.0000m  869.0438m -169.0438m 
 -614.40678m   11.2870n  700.0000m  868.9024m -168.9024m 
 -614.30678m   11.2766n  700.0000m  868.7610m -168.7610m 
 -614.20678m   11.2661n  700.0000m  868.6196m -168.6196m 
 -614.10678m   11.2557n  700.0000m  868.4781m -168.4781m 
 -614.00678m   11.2453n  700.0000m  868.3367m -168.3367m 
 -613.90678m   11.2349n  700.0000m  868.1953m -168.1953m 
 -613.80678m   11.2245n  700.0000m  868.0539m -168.0539m 
 -613.70678m   11.2141n  700.0000m  867.9125m -167.9125m 
 -613.60678m   11.2037n  700.0000m  867.7710m -167.7710m 
 -613.50678m   11.1933n  700.0000m  867.6296m -167.6296m 
 -613.40678m   11.1829n  700.0000m  867.4882m -167.4882m 
 -613.30678m   11.1725n  700.0000m  867.3468m -167.3468m 
 -613.20678m   11.1622n  700.0000m  867.2054m -167.2054m 
 -613.10678m   11.1518n  700.0000m  867.0639m -167.0639m 
 -613.00678m   11.1415n  700.0000m  866.9225m -166.9225m 
 -612.90678m   11.1311n  700.0000m  866.7811m -166.7811m 
 -612.80678m   11.1208n  700.0000m  866.6397m -166.6397m 
 -612.70678m   11.1104n  700.0000m  866.4983m -166.4982m 
 -612.60678m   11.1001n  700.0000m  866.3568m -166.3568m 
 -612.50678m   11.0898n  700.0000m  866.2154m -166.2154m 
 -612.40678m   11.0795n  700.0000m  866.0740m -166.0740m 
 -612.30678m   11.0691n  700.0000m  865.9326m -165.9326m 
 -612.20678m   11.0588n  700.0000m  865.7911m -165.7911m 
 -612.10678m   11.0485n  700.0000m  865.6497m -165.6497m 
 -612.00678m   11.0382n  700.0000m  865.5083m -165.5083m 
 -611.90678m   11.0280n  700.0000m  865.3669m -165.3669m 
 -611.80678m   11.0177n  700.0000m  865.2255m -165.2255m 
 -611.70678m   11.0074n  700.0000m  865.0840m -165.0840m 
 -611.60678m   10.9972n  700.0000m  864.9426m -164.9426m 
 -611.50678m   10.9869n  700.0000m  864.8012m -164.8012m 
 -611.40678m   10.9766n  700.0000m  864.6598m -164.6598m 
 -611.30678m   10.9664n  700.0000m  864.5184m -164.5183m 
 -611.20678m   10.9562n  700.0000m  864.3769m -164.3769m 
 -611.10678m   10.9459n  700.0000m  864.2355m -164.2355m 
 -611.00678m   10.9357n  700.0000m  864.0941m -164.0941m 
 -610.90678m   10.9255n  700.0000m  863.9527m -163.9527m 
 -610.80678m   10.9153n  700.0000m  863.8112m -163.8112m 
 -610.70678m   10.9051n  700.0000m  863.6698m -163.6698m 
 -610.60678m   10.8949n  700.0000m  863.5284m -163.5284m 
 -610.50678m   10.8847n  700.0000m  863.3870m -163.3870m 
 -610.40678m   10.8745n  700.0000m  863.2456m -163.2456m 
 -610.30678m   10.8643n  700.0000m  863.1041m -163.1041m 
 -610.20678m   10.8542n  700.0000m  862.9627m -162.9627m 
 -610.10678m   10.8440n  700.0000m  862.8213m -162.8213m 
 -610.00678m   10.8339n  700.0000m  862.6799m -162.6799m 
 -609.90678m   10.8237n  700.0000m  862.5385m -162.5384m 
 -609.80678m   10.8136n  700.0000m  862.3970m -162.3970m 
 -609.70678m   10.8035n  700.0000m  862.2556m -162.2556m 
 -609.60678m   10.7933n  700.0000m  862.1142m -162.1142m 
 -609.50678m   10.7832n  700.0000m  861.9728m -161.9728m 
 -609.40678m   10.7731n  700.0000m  861.8313m -161.8313m 
 -609.30678m   10.7630n  700.0000m  861.6899m -161.6899m 
 -609.20678m   10.7529n  700.0000m  861.5485m -161.5485m 
 -609.10678m   10.7428n  700.0000m  861.4071m -161.4071m 
 -609.00678m   10.7327n  700.0000m  861.2657m -161.2657m 
 -608.90678m   10.7227n  700.0000m  861.1242m -161.1242m 
 -608.80678m   10.7126n  700.0000m  860.9828m -160.9828m 
 -608.70678m   10.7026n  700.0000m  860.8414m -160.8414m 
 -608.60678m   10.6925n  700.0000m  860.7000m -160.7000m 
 -608.50678m   10.6825n  700.0000m  860.5586m -160.5585m 
 -608.40678m   10.6724n  700.0000m  860.4171m -160.4171m 
 -608.30678m   10.6624n  700.0000m  860.2757m -160.2757m 
 -608.20678m   10.6524n  700.0000m  860.1343m -160.1343m 
 -608.10678m   10.6424n  700.0000m  859.9929m -159.9929m 
 -608.00678m   10.6324n  700.0000m  859.8514m -159.8514m 
 -607.90678m   10.6224n  700.0000m  859.7100m -159.7100m 
 -607.80678m   10.6124n  700.0000m  859.5686m -159.5686m 
 -607.70678m   10.6024n  700.0000m  859.4272m -159.4272m 
 -607.60678m   10.5925n  700.0000m  859.2858m -159.2858m 
 -607.50678m   10.5825n  700.0000m  859.1443m -159.1443m 
 -607.40678m   10.5726n  700.0000m  859.0029m -159.0029m 
 -607.30678m   10.5626n  700.0000m  858.8615m -158.8615m 
 -607.20678m   10.5527n  700.0000m  858.7201m -158.7201m 
 -607.10678m   10.5428n  700.0000m  858.5787m -158.5786m 
 -607.00678m   10.5328n  700.0000m  858.4372m -158.4372m 
 -606.90678m   10.5229n  700.0000m  858.2958m -158.2958m 
 -606.80678m   10.5130n  700.0000m  858.1544m -158.1544m 
 -606.70678m   10.5031n  700.0000m  858.0130m -158.0130m 
 -606.60678m   10.4933n  700.0000m  857.8715m -157.8715m 
 -606.50678m   10.4834n  700.0000m  857.7301m -157.7301m 
 -606.40678m   10.4735n  700.0000m  857.5887m -157.5887m 
 -606.30678m   10.4637n  700.0000m  857.4473m -157.4473m 
 -606.20678m   10.4538n  700.0000m  857.3059m -157.3059m 
 -606.10678m   10.4440n  700.0000m  857.1644m -157.1644m 
 -606.00678m   10.4341n  700.0000m  857.0230m -157.0230m 
 -605.90678m   10.4243n  700.0000m  856.8816m -156.8816m 
 -605.80678m   10.4145n  700.0000m  856.7402m -156.7402m 
 -605.70678m   10.4047n  700.0000m  856.5988m -156.5987m 
 -605.60678m   10.3949n  700.0000m  856.4573m -156.4573m 
 -605.50678m   10.3851n  700.0000m  856.3159m -156.3159m 
 -605.40678m   10.3753n  700.0000m  856.1745m -156.1745m 
 -605.30678m   10.3656n  700.0000m  856.0331m -156.0331m 
 -605.20678m   10.3558n  700.0000m  855.8916m -155.8916m 
 -605.10678m   10.3460n  700.0000m  855.7502m -155.7502m 
 -605.00678m   10.3363n  700.0000m  855.6088m -155.6088m 
 -604.90678m   10.3266n  700.0000m  855.4674m -155.4674m 
 -604.80678m   10.3168n  700.0000m  855.3260m -155.3260m 
 -604.70678m   10.3071n  700.0000m  855.1845m -155.1845m 
 -604.60678m   10.2974n  700.0000m  855.0431m -155.0431m 
 -604.50678m   10.2877n  700.0000m  854.9017m -154.9017m 
 -604.40678m   10.2780n  700.0000m  854.7603m -154.7603m 
 -604.30678m   10.2683n  700.0000m  854.6189m -154.6189m 
 -604.20678m   10.2587n  700.0000m  854.4774m -154.4774m 
 -604.10678m   10.2490n  700.0000m  854.3360m -154.3360m 
 -604.00678m   10.2394n  700.0000m  854.1946m -154.1946m 
 -603.90678m   10.2297n  700.0000m  854.0532m -154.0532m 
 -603.80678m   10.2201n  700.0000m  853.9117m -153.9117m 
 -603.70678m   10.2105n  700.0000m  853.7703m -153.7703m 
 -603.60678m   10.2009n  700.0000m  853.6289m -153.6289m 
 -603.50678m   10.1913n  700.0000m  853.4875m -153.4875m 
 -603.40678m   10.1817n  700.0000m  853.3461m -153.3461m 
 -603.30678m   10.1721n  700.0000m  853.2046m -153.2046m 
 -603.20678m   10.1625n  700.0000m  853.0632m -153.0632m 
 -603.10678m   10.1529n  700.0000m  852.9218m -152.9218m 
 -603.00678m   10.1434n  700.0000m  852.7804m -152.7804m 
 -602.90678m   10.1339n  700.0000m  852.6390m -152.6390m 
 -602.80678m   10.1243n  700.0000m  852.4975m -152.4975m 
 -602.70678m   10.1148n  700.0000m  852.3561m -152.3561m 
 -602.60678m   10.1053n  700.0000m  852.2147m -152.2147m 
 -602.50678m   10.0958n  700.0000m  852.0733m -152.0733m 
 -602.40678m   10.0863n  700.0000m  851.9319m -151.9318m 
 -602.30678m   10.0768n  700.0000m  851.7904m -151.7904m 
 -602.20678m   10.0673n  700.0000m  851.6490m -151.6490m 
 -602.10678m   10.0579n  700.0000m  851.5076m -151.5076m 
 -602.00678m   10.0484n  700.0000m  851.3662m -151.3662m 
 -601.90678m   10.0390n  700.0000m  851.2247m -151.2247m 
 -601.80678m   10.0295n  700.0000m  851.0833m -151.0833m 
 -601.70678m   10.0201n  700.0000m  850.9419m -150.9419m 
 -601.60678m   10.0107n  700.0000m  850.8005m -150.8005m 
 -601.50678m   10.0013n  700.0000m  850.6591m -150.6591m 
 -601.40678m    9.9919n  700.0000m  850.5176m -150.5176m 
 -601.30678m    9.9826n  700.0000m  850.3762m -150.3762m 
 -601.20678m    9.9732n  700.0000m  850.2348m -150.2348m 
 -601.10678m    9.9638n  700.0000m  850.0934m -150.0934m 
 -601.00678m    9.9545n  700.0000m  849.9520m -149.9519m 
 -600.90678m    9.9452n  700.0000m  849.8105m -149.8105m 
 -600.80678m    9.9358n  700.0000m  849.6691m -149.6691m 
 -600.70678m    9.9265n  700.0000m  849.5277m -149.5277m 
 -600.60678m    9.9172n  700.0000m  849.3863m -149.3863m 
 -600.50678m    9.9079n  700.0000m  849.2448m -149.2448m 
 -600.40678m    9.8986n  700.0000m  849.1034m -149.1034m 
 -600.30678m    9.8894n  700.0000m  848.9620m -148.9620m 
 -600.20678m    9.8801n  700.0000m  848.8206m -148.8206m 
 -600.10678m    9.8709n  700.0000m  848.6792m -148.6792m 
 -600.00678m    9.8616n  700.0000m  848.5377m -148.5377m 
 -599.90678m    9.8524n  700.0000m  848.3963m -148.3963m 
 -599.80678m    9.8432n  700.0000m  848.2549m -148.2549m 
 -599.70678m    9.8340n  700.0000m  848.1135m -148.1135m 
 -599.60678m    9.8248n  700.0000m  847.9721m -147.9720m 
 -599.50678m    9.8156n  700.0000m  847.8306m -147.8306m 
 -599.40678m    9.8065n  700.0000m  847.6892m -147.6892m 
 -599.30678m    9.7973n  700.0000m  847.5478m -147.5478m 
 -599.20678m    9.7882n  700.0000m  847.4064m -147.4064m 
 -599.10678m    9.7791n  700.0000m  847.2649m -147.2649m 
 -599.00678m    9.7699n  700.0000m  847.1235m -147.1235m 
 -598.90678m    9.7608n  700.0000m  846.9821m -146.9821m 
 -598.80678m    9.7517n  700.0000m  846.8407m -146.8407m 
 -598.70678m    9.7427n  700.0000m  846.6993m -146.6993m 
 -598.60678m    9.7336n  700.0000m  846.5578m -146.5578m 
 -598.50678m    9.7245n  700.0000m  846.4164m -146.4164m 
 -598.40678m    9.7155n  700.0000m  846.2750m -146.2750m 
 -598.30678m    9.7065n  700.0000m  846.1336m -146.1336m 
 -598.20678m    9.6974n  700.0000m  845.9922m -145.9921m 
 -598.10678m    9.6884n  700.0000m  845.8507m -145.8507m 
 -598.00678m    9.6794n  700.0000m  845.7093m -145.7093m 
 -597.90678m    9.6704n  700.0000m  845.5679m -145.5679m 
 -597.80678m    9.6615n  700.0000m  845.4265m -145.4265m 
 -597.70678m    9.6525n  700.0000m  845.2850m -145.2850m 
 -597.60678m    9.6436n  700.0000m  845.1436m -145.1436m 
 -597.50678m    9.6346n  700.0000m  845.0022m -145.0022m 
 -597.40678m    9.6257n  700.0000m  844.8608m -144.8608m 
 -597.30678m    9.6168n  700.0000m  844.7194m -144.7194m 
 -597.20678m    9.6079n  700.0000m  844.5779m -144.5779m 
 -597.10678m    9.5990n  700.0000m  844.4365m -144.4365m 
 -597.00678m    9.5901n  700.0000m  844.2951m -144.2951m 
 -596.90678m    9.5813n  700.0000m  844.1537m -144.1537m 
 -596.80678m    9.5724n  700.0000m  844.0123m -144.0122m 
 -596.70678m    9.5636n  700.0000m  843.8708m -143.8708m 
 -596.60678m    9.5548n  700.0000m  843.7294m -143.7294m 
 -596.50678m    9.5460n  700.0000m  843.5880m -143.5880m 
 -596.40678m    9.5372n  700.0000m  843.4466m -143.4466m 
 -596.30678m    9.5284n  700.0000m  843.3051m -143.3051m 
 -596.20678m    9.5196n  700.0000m  843.1637m -143.1637m 
 -596.10678m    9.5109n  700.0000m  843.0223m -143.0223m 
 -596.00678m    9.5022n  700.0000m  842.8809m -142.8809m 
 -595.90678m    9.4934n  700.0000m  842.7395m -142.7395m 
 -595.80678m    9.4847n  700.0000m  842.5980m -142.5980m 
 -595.70678m    9.4760n  700.0000m  842.4566m -142.4566m 
 -595.60678m    9.4673n  700.0000m  842.3152m -142.3152m 
 -595.50678m    9.4587n  700.0000m  842.1738m -142.1738m 
 -595.40678m    9.4500n  700.0000m  842.0324m -142.0323m 
 -595.30678m    9.4414n  700.0000m  841.8909m -141.8909m 
 -595.20678m    9.4327n  700.0000m  841.7495m -141.7495m 
 -595.10678m    9.4241n  700.0000m  841.6081m -141.6081m 
 -595.00678m    9.4155n  700.0000m  841.4667m -141.4667m 
 -594.90678m    9.4069n  700.0000m  841.3252m -141.3252m 
 -594.80678m    9.3984n  700.0000m  841.1838m -141.1838m 
 -594.70678m    9.3898n  700.0000m  841.0424m -141.0424m 
 -594.60678m    9.3813n  700.0000m  840.9010m -140.9010m 
 -594.50678m    9.3727n  700.0000m  840.7596m -140.7596m 
 -594.40678m    9.3642n  700.0000m  840.6181m -140.6181m 
 -594.30678m    9.3557n  700.0000m  840.4767m -140.4767m 
 -594.20678m    9.3472n  700.0000m  840.3353m -140.3353m 
 -594.10678m    9.3387n  700.0000m  840.1939m -140.1939m 
 -594.00678m    9.3303n  700.0000m  840.0525m -140.0525m 
 -593.90678m    9.3218n  700.0000m  839.9110m -139.9110m 
 -593.80678m    9.3134n  700.0000m  839.7696m -139.7696m 
 -593.70678m    9.3050n  700.0000m  839.6282m -139.6282m 
 -593.60678m    9.2966n  700.0000m  839.4868m -139.4868m 
 -593.50678m    9.2882n  700.0000m  839.3453m -139.3453m 
 -593.40678m    9.2798n  700.0000m  839.2039m -139.2039m 
 -593.30678m    9.2715n  700.0000m  839.0625m -139.0625m 
 -593.20678m    9.2632n  700.0000m  838.9211m -138.9211m 
 -593.10678m    9.2548n  700.0000m  838.7797m -138.7797m 
 -593.00678m    9.2465n  700.0000m  838.6382m -138.6382m 
 -592.90678m    9.2382n  700.0000m  838.4968m -138.4968m 
 -592.80678m    9.2299n  700.0000m  838.3554m -138.3554m 
 -592.70678m    9.2217n  700.0000m  838.2140m -138.2140m 
 -592.60678m    9.2134n  700.0000m  838.0726m -138.0726m 
 -592.50678m    9.2052n  700.0000m  837.9311m -137.9311m 
 -592.40678m    9.1970n  700.0000m  837.7897m -137.7897m 
 -592.30678m    9.1888n  700.0000m  837.6483m -137.6483m 
 -592.20678m    9.1806n  700.0000m  837.5069m -137.5069m 
 -592.10678m    9.1724n  700.0000m  837.3654m -137.3654m 
 -592.00678m    9.1643n  700.0000m  837.2240m -137.2240m 
 -591.90678m    9.1561n  700.0000m  837.0826m -137.0826m 
 -591.80678m    9.1480n  700.0000m  836.9412m -136.9412m 
 -591.70678m    9.1399n  700.0000m  836.7998m -136.7998m 
 -591.60678m    9.1318n  700.0000m  836.6583m -136.6583m 
 -591.50678m    9.1237n  700.0000m  836.5169m -136.5169m 
 -591.40678m    9.1157n  700.0000m  836.3755m -136.3755m 
 -591.30678m    9.1076n  700.0000m  836.2341m -136.2341m 
 -591.20678m    9.0996n  700.0000m  836.0927m -136.0927m 
 -591.10678m    9.0916n  700.0000m  835.9512m -135.9512m 
 -591.00678m    9.0836n  700.0000m  835.8098m -135.8098m 
 -590.90678m    9.0756n  700.0000m  835.6684m -135.6684m 
 -590.80678m    9.0677n  700.0000m  835.5270m -135.5270m 
 -590.70678m    9.0597n  700.0000m  835.3856m -135.3855m 
 -590.60678m    9.0518n  700.0000m  835.2441m -135.2441m 
 -590.50678m    9.0439n  700.0000m  835.1027m -135.1027m 
 -590.40678m    9.0360n  700.0000m  834.9613m -134.9613m 
 -590.30678m    9.0281n  700.0000m  834.8199m -134.8199m 
 -590.20678m    9.0203n  700.0000m  834.6784m -134.6784m 
 -590.10678m    9.0124n  700.0000m  834.5370m -134.5370m 
 -590.00678m    9.0046n  700.0000m  834.3956m -134.3956m 
 -589.90678m    8.9968n  700.0000m  834.2542m -134.2542m 
 -589.80678m    8.9890n  700.0000m  834.1128m -134.1128m 
 -589.70678m    8.9812n  700.0000m  833.9713m -133.9713m 
 -589.60678m    8.9735n  700.0000m  833.8299m -133.8299m 
 -589.50678m    8.9658n  700.0000m  833.6885m -133.6885m 
 -589.40678m    8.9580n  700.0000m  833.5471m -133.5471m 
 -589.30678m    8.9503n  700.0000m  833.4057m -133.4056m 
 -589.20678m    8.9427n  700.0000m  833.2642m -133.2642m 
 -589.10678m    8.9350n  700.0000m  833.1228m -133.1228m 
 -589.00678m    8.9273n  700.0000m  832.9814m -132.9814m 
 -588.90678m    8.9197n  700.0000m  832.8400m -132.8400m 
 -588.80678m    8.9121n  700.0000m  832.6985m -132.6985m 
 -588.70678m    8.9045n  700.0000m  832.5571m -132.5571m 
 -588.60678m    8.8969n  700.0000m  832.4157m -132.4157m 
 -588.50678m    8.8894n  700.0000m  832.2743m -132.2743m 
 -588.40678m    8.8818n  700.0000m  832.1329m -132.1329m 
 -588.30678m    8.8743n  700.0000m  831.9914m -131.9914m 
 -588.20678m    8.8668n  700.0000m  831.8500m -131.8500m 
 -588.10678m    8.8593n  700.0000m  831.7086m -131.7086m 
 -588.00678m    8.8518n  700.0000m  831.5672m -131.5672m 
 -587.90678m    8.8444n  700.0000m  831.4258m -131.4257m 
 -587.80678m    8.8370n  700.0000m  831.2843m -131.2843m 
 -587.70678m    8.8296n  700.0000m  831.1429m -131.1429m 
 -587.60678m    8.8222n  700.0000m  831.0015m -131.0015m 
 -587.50678m    8.8148n  700.0000m  830.8601m -130.8601m 
 -587.40678m    8.8074n  700.0000m  830.7186m -130.7186m 
 -587.30678m    8.8001n  700.0000m  830.5772m -130.5772m 
 -587.20678m    8.7928n  700.0000m  830.4358m -130.4358m 
 -587.10678m    8.7855n  700.0000m  830.2944m -130.2944m 
 -587.00678m    8.7782n  700.0000m  830.1530m -130.1530m 
 -586.90678m    8.7709n  700.0000m  830.0115m -130.0115m 
 -586.80678m    8.7637n  700.0000m  829.8701m -129.8701m 
 -586.70678m    8.7565n  700.0000m  829.7287m -129.7287m 
 -586.60678m    8.7493n  700.0000m  829.5873m -129.5873m 
 -586.50678m    8.7421n  700.0000m  829.4459m -129.4458m 
 -586.40678m    8.7349n  700.0000m  829.3044m -129.3044m 
 -586.30678m    8.7278n  700.0000m  829.1630m -129.1630m 
 -586.20678m    8.7207n  700.0000m  829.0216m -129.0216m 
 -586.10678m    8.7136n  700.0000m  828.8802m -128.8802m 
 -586.00678m    8.7065n  700.0000m  828.7387m -128.7387m 
 -585.90678m    8.6994n  700.0000m  828.5973m -128.5973m 
 -585.80678m    8.6924n  700.0000m  828.4559m -128.4559m 
 -585.70678m    8.6854n  700.0000m  828.3145m -128.3145m 
 -585.60678m    8.6784n  700.0000m  828.1731m -128.1731m 
 -585.50678m    8.6714n  700.0000m  828.0316m -128.0316m 
 -585.40678m    8.6644n  700.0000m  827.8902m -127.8902m 
 -585.30678m    8.6575n  700.0000m  827.7488m -127.7488m 
 -585.20678m    8.6506n  700.0000m  827.6074m -127.6074m 
 -585.10678m    8.6437n  700.0000m  827.4660m -127.4659m 
 -585.00678m    8.6368n  700.0000m  827.3245m -127.3245m 
 -584.90678m    8.6299n  700.0000m  827.1831m -127.1831m 
 -584.80678m    8.6231n  700.0000m  827.0417m -127.0417m 
 -584.70678m    8.6163n  700.0000m  826.9003m -126.9003m 
 -584.60678m    8.6095n  700.0000m  826.7588m -126.7588m 
 -584.50678m    8.6027n  700.0000m  826.6174m -126.6174m 
 -584.40678m    8.5960n  700.0000m  826.4760m -126.4760m 
 -584.30678m    8.5892n  700.0000m  826.3346m -126.3346m 
 -584.20678m    8.5825n  700.0000m  826.1932m -126.1932m 
 -584.10678m    8.5758n  700.0000m  826.0517m -126.0517m 
 -584.00678m    8.5692n  700.0000m  825.9103m -125.9103m 
 -583.90678m    8.5625n  700.0000m  825.7689m -125.7689m 
 -583.80678m    8.5559n  700.0000m  825.6275m -125.6275m 
 -583.70678m    8.5493n  700.0000m  825.4861m -125.4860m 
 -583.60678m    8.5427n  700.0000m  825.3446m -125.3446m 
 -583.50678m    8.5362n  700.0000m  825.2032m -125.2032m 
 -583.40678m    8.5296n  700.0000m  825.0618m -125.0618m 
 -583.30678m    8.5231n  700.0000m  824.9204m -124.9204m 
 -583.20678m    8.5166n  700.0000m  824.7789m -124.7789m 
 -583.10678m    8.5102n  700.0000m  824.6375m -124.6375m 
 -583.00678m    8.5037n  700.0000m  824.4961m -124.4961m 
 -582.90678m    8.4973n  700.0000m  824.3547m -124.3547m 
 -582.80678m    8.4909n  700.0000m  824.2133m -124.2133m 
 -582.70678m    8.4845n  700.0000m  824.0718m -124.0718m 
 -582.60678m    8.4782n  700.0000m  823.9304m -123.9304m 
 -582.50678m    8.4718n  700.0000m  823.7890m -123.7890m 
 -582.40678m    8.4655n  700.0000m  823.6476m -123.6476m 
 -582.30678m    8.4592n  700.0000m  823.5062m -123.5062m 
 -582.20678m    8.4529n  700.0000m  823.3647m -123.3647m 
 -582.10678m    8.4467n  700.0000m  823.2233m -123.2233m 
 -582.00678m    8.4405n  700.0000m  823.0819m -123.0819m 
 -581.90678m    8.4343n  700.0000m  822.9405m -122.9405m 
 -581.80678m    8.4281n  700.0000m  822.7990m -122.7990m 
 -581.70678m    8.4220n  700.0000m  822.6576m -122.6576m 
 -581.60678m    8.4158n  700.0000m  822.5162m -122.5162m 
 -581.50678m    8.4097n  700.0000m  822.3748m -122.3748m 
 -581.40678m    8.4037n  700.0000m  822.2334m -122.2334m 
 -581.30678m    8.3976n  700.0000m  822.0919m -122.0919m 
 -581.20678m    8.3916n  700.0000m  821.9505m -121.9505m 
 -581.10678m    8.3856n  700.0000m  821.8091m -121.8091m 
 -581.00678m    8.3796n  700.0000m  821.6677m -121.6677m 
 -580.90678m    8.3736n  700.0000m  821.5263m -121.5263m 
 -580.80678m    8.3677n  700.0000m  821.3848m -121.3848m 
 -580.70678m    8.3618n  700.0000m  821.2434m -121.2434m 
 -580.60678m    8.3559n  700.0000m  821.1020m -121.1020m 
 -580.50678m    8.3500n  700.0000m  820.9606m -120.9606m 
 -580.40678m    8.3442n  700.0000m  820.8191m -120.8191m 
 -580.30678m    8.3383n  700.0000m  820.6777m -120.6777m 
 -580.20678m    8.3326n  700.0000m  820.5363m -120.5363m 
 -580.10678m    8.3268n  700.0000m  820.3949m -120.3949m 
 -580.00678m    8.3210n  700.0000m  820.2535m -120.2535m 
 -579.90678m    8.3153n  700.0000m  820.1120m -120.1120m 
 -579.80678m    8.3096n  700.0000m  819.9706m -119.9706m 
 -579.70678m    8.3040n  700.0000m  819.8292m -119.8292m 
 -579.60678m    8.2983n  700.0000m  819.6878m -119.6878m 
 -579.50678m    8.2927n  700.0000m  819.5464m -119.5464m 
 -579.40678m    8.2871n  700.0000m  819.4049m -119.4049m 
 -579.30678m    8.2815n  700.0000m  819.2635m -119.2635m 
 -579.20678m    8.2760n  700.0000m  819.1221m -119.1221m 
 -579.10678m    8.2705n  700.0000m  818.9807m -118.9807m 
 -579.00678m    8.2650n  700.0000m  818.8393m -118.8392m 
 -578.90678m    8.2595n  700.0000m  818.6978m -118.6978m 
 -578.80678m    8.2541n  700.0000m  818.5564m -118.5564m 
 -578.70678m    8.2487n  700.0000m  818.4150m -118.4150m 
 -578.60678m    8.2433n  700.0000m  818.2736m -118.2736m 
 -578.50678m    8.2379n  700.0000m  818.1321m -118.1321m 
 -578.40678m    8.2326n  700.0000m  817.9907m -117.9907m 
 -578.30678m    8.2273n  700.0000m  817.8493m -117.8493m 
 -578.20678m    8.2220n  700.0000m  817.7079m -117.7079m 
 -578.10678m    8.2167n  700.0000m  817.5665m -117.5665m 
 -578.00678m    8.2115n  700.0000m  817.4250m -117.4250m 
 -577.90678m    8.2063n  700.0000m  817.2836m -117.2836m 
 -577.80678m    8.2011n  700.0000m  817.1422m -117.1422m 
 -577.70678m    8.1960n  700.0000m  817.0008m -117.0008m 
 -577.60678m    8.1908n  700.0000m  816.8594m -116.8593m 
 -577.50678m    8.1857n  700.0000m  816.7179m -116.7179m 
 -577.40678m    8.1807n  700.0000m  816.5765m -116.5765m 
 -577.30678m    8.1756n  700.0000m  816.4351m -116.4351m 
 -577.20678m    8.1706n  700.0000m  816.2937m -116.2937m 
 -577.10678m    8.1656n  700.0000m  816.1522m -116.1522m 
 -577.00678m    8.1606n  700.0000m  816.0108m -116.0108m 
 -576.90678m    8.1557n  700.0000m  815.8694m -115.8694m 
 -576.80678m    8.1508n  700.0000m  815.7280m -115.7280m 
 -576.70678m    8.1459n  700.0000m  815.5866m -115.5866m 
 -576.60678m    8.1411n  700.0000m  815.4451m -115.4451m 
 -576.50678m    8.1362n  700.0000m  815.3037m -115.3037m 
 -576.40678m    8.1314n  700.0000m  815.1623m -115.1623m 
 -576.30678m    8.1267n  700.0000m  815.0209m -115.0209m 
 -576.20678m    8.1219n  700.0000m  814.8795m -114.8794m 
 -576.10678m    8.1172n  700.0000m  814.7380m -114.7380m 
 -576.00678m    8.1125n  700.0000m  814.5966m -114.5966m 
 -575.90678m    8.1078n  700.0000m  814.4552m -114.4552m 
 -575.80678m    8.1032n  700.0000m  814.3138m -114.3138m 
 -575.70678m    8.0986n  700.0000m  814.1723m -114.1723m 
 -575.60678m    8.0940n  700.0000m  814.0309m -114.0309m 
 -575.50678m    8.0895n  700.0000m  813.8895m -113.8895m 
 -575.40678m    8.0850n  700.0000m  813.7481m -113.7481m 
 -575.30678m    8.0805n  700.0000m  813.6067m -113.6067m 
 -575.20678m    8.0760n  700.0000m  813.4652m -113.4652m 
 -575.10678m    8.0716n  700.0000m  813.3238m -113.3238m 
 -575.00678m    8.0672n  700.0000m  813.1824m -113.1824m 
 -574.90678m    8.0628n  700.0000m  813.0410m -113.0410m 
 -574.80678m    8.0584n  700.0000m  812.8996m -112.8995m 
 -574.70678m    8.0541n  700.0000m  812.7581m -112.7581m 
 -574.60678m    8.0498n  700.0000m  812.6167m -112.6167m 
 -574.50678m    8.0456n  700.0000m  812.4753m -112.4753m 
 -574.40678m    8.0413n  700.0000m  812.3339m -112.3339m 
 -574.30678m    8.0371n  700.0000m  812.1924m -112.1924m 
 -574.20678m    8.0330n  700.0000m  812.0510m -112.0510m 
 -574.10678m    8.0288n  700.0000m  811.9096m -111.9096m 
 -574.00678m    8.0247n  700.0000m  811.7682m -111.7682m 
 -573.90678m    8.0206n  700.0000m  811.6268m -111.6268m 
 -573.80678m    8.0166n  700.0000m  811.4853m -111.4853m 
 -573.70678m    8.0126n  700.0000m  811.3439m -111.3439m 
 -573.60678m    8.0086n  700.0000m  811.2025m -111.2025m 
 -573.50678m    8.0046n  700.0000m  811.0611m -111.0611m 
 -573.40678m    8.0007n  700.0000m  810.9197m -110.9196m 
 -573.30678m    7.9968n  700.0000m  810.7782m -110.7782m 
 -573.20678m    7.9929n  700.0000m  810.6368m -110.6368m 
 -573.10678m    7.9890n  700.0000m  810.4954m -110.4954m 
 -573.00678m    7.9852n  700.0000m  810.3540m -110.3540m 
 -572.90678m    7.9815n  700.0000m  810.2125m -110.2125m 
 -572.80678m    7.9777n  700.0000m  810.0711m -110.0711m 
 -572.70678m    7.9740n  700.0000m  809.9297m -109.9297m 
 -572.60678m    7.9703n  700.0000m  809.7883m -109.7883m 
 -572.50678m    7.9666n  700.0000m  809.6469m -109.6469m 
 -572.40678m    7.9630n  700.0000m  809.5054m -109.5054m 
 -572.30678m    7.9594n  700.0000m  809.3640m -109.3640m 
 -572.20678m    7.9558n  700.0000m  809.2226m -109.2226m 
[...]
  681.69322m  700.0000m   18.9769n -264.0598m  964.0598m 
  681.79322m  700.0000m   18.9890n -264.2012m  964.2012m 
  681.89322m  700.0000m   19.0010n -264.3426m  964.3427m 
  681.99322m  700.0000m   19.0131n -264.4841m  964.4841m 
  682.09322m  700.0000m   19.0251n -264.6255m  964.6255m 
  682.19322m  700.0000m   19.0371n -264.7669m  964.7669m 
  682.29322m  700.0000m   19.0492n -264.9083m  964.9083m 
  682.39322m  700.0000m   19.0612n -265.0498m  965.0498m 
  682.49322m  700.0000m   19.0733n -265.1912m  965.1912m 
  682.59322m  700.0000m   19.0853n -265.3326m  965.3326m 
  682.69322m  700.0000m   19.0974n -265.4740m  965.4740m 
  682.79322m  700.0000m   19.1094n -265.6154m  965.6154m 
  682.89322m  700.0000m   19.1215n -265.7569m  965.7569m 
  682.99322m  700.0000m   19.1336n -265.8983m  965.8983m 
  683.09322m  700.0000m   19.1456n -266.0397m  966.0397m 
  683.19322m  700.0000m   19.1577n -266.1811m  966.1811m 
  683.29322m  700.0000m   19.1697n -266.3225m  966.3226m 
  683.39322m  700.0000m   19.1818n -266.4640m  966.4640m 
  683.49322m  700.0000m   19.1939n -266.6054m  966.6054m 
  683.59322m  700.0000m   19.2059n -266.7468m  966.7468m 
  683.69322m  700.0000m   19.2180n -266.8882m  966.8882m 
  683.79322m  700.0000m   19.2301n -267.0297m  967.0297m 
  683.89322m  700.0000m   19.2422n -267.1711m  967.1711m 
  683.99322m  700.0000m   19.2542n -267.3125m  967.3125m 
  684.09322m  700.0000m   19.2663n -267.4539m  967.4539m 
  684.19322m  700.0000m   19.2784n -267.5953m  967.5953m 
  684.29322m  700.0000m   19.2905n -267.7368m  967.7368m 
  684.39322m  700.0000m   19.3026n -267.8782m  967.8782m 
  684.49322m  700.0000m   19.3146n -268.0196m  968.0196m 
  684.59322m  700.0000m   19.3267n -268.1610m  968.1610m 
  684.69322m  700.0000m   19.3388n -268.3024m  968.3025m 
  684.79322m  700.0000m   19.3509n -268.4439m  968.4439m 
  684.89322m  700.0000m   19.3630n -268.5853m  968.5853m 
  684.99322m  700.0000m   19.3751n -268.7267m  968.7267m 
  685.09322m  700.0000m   19.3872n -268.8681m  968.8681m 
  685.19322m  700.0000m   19.3993n -269.0096m  969.0096m 
  685.29322m  700.0000m   19.4114n -269.1510m  969.1510m 
  685.39322m  700.0000m   19.4235n -269.2924m  969.2924m 
  685.49322m  700.0000m   19.4356n -269.4338m  969.4338m 
  685.59322m  700.0000m   19.4477n -269.5752m  969.5752m 
  685.69322m  700.0000m   19.4598n -269.7167m  969.7167m 
  685.79322m  700.0000m   19.4719n -269.8581m  969.8581m 
  685.89322m  700.0000m   19.4840n -269.9995m  969.9995m 
  685.99322m  700.0000m   19.4962n -270.1409m  970.1409m 
  686.09322m  700.0000m   19.5083n -270.2823m  970.2824m 
  686.19322m  700.0000m   19.5204n -270.4238m  970.4238m 
  686.29322m  700.0000m   19.5325n -270.5652m  970.5652m 
  686.39322m  700.0000m   19.5446n -270.7066m  970.7066m 
  686.49322m  700.0000m   19.5568n -270.8480m  970.8480m 
  686.59322m  700.0000m   19.5689n -270.9895m  970.9895m 
  686.69322m  700.0000m   19.5810n -271.1309m  971.1309m 
  686.79322m  700.0000m   19.5932n -271.2723m  971.2723m 
  686.89322m  700.0000m   19.6053n -271.4137m  971.4137m 
  686.99322m  700.0000m   19.6174n -271.5551m  971.5551m 
  687.09322m  700.0000m   19.6296n -271.6966m  971.6966m 
  687.19322m  700.0000m   19.6417n -271.8380m  971.8380m 
  687.29322m  700.0000m   19.6538n -271.9794m  971.9794m 
  687.39322m  700.0000m   19.6660n -272.1208m  972.1208m 
  687.49322m  700.0000m   19.6781n -272.2622m  972.2623m 
  687.59322m  700.0000m   19.6903n -272.4037m  972.4037m 
  687.69322m  700.0000m   19.7024n -272.5451m  972.5451m 
  687.79322m  700.0000m   19.7146n -272.6865m  972.6865m 
  687.89322m  700.0000m   19.7267n -272.8279m  972.8279m 
  687.99322m  700.0000m   19.7389n -272.9694m  972.9694m 
  688.09322m  700.0000m   19.7510n -273.1108m  973.1108m 
  688.19322m  700.0000m   19.7632n -273.2522m  973.2522m 
  688.29322m  700.0000m   19.7754n -273.3936m  973.3936m 
  688.39322m  700.0000m   19.7875n -273.5350m  973.5350m 
  688.49322m  700.0000m   19.7997n -273.6765m  973.6765m 
  688.59322m  700.0000m   19.8119n -273.8179m  973.8179m 
  688.69322m  700.0000m   19.8240n -273.9593m  973.9593m 
  688.79322m  700.0000m   19.8362n -274.1007m  974.1007m 
  688.89322m  700.0000m   19.8484n -274.2421m  974.2422m 
  688.99322m  700.0000m   19.8605n -274.3836m  974.3836m 
  689.09322m  700.0000m   19.8727n -274.5250m  974.5250m 
  689.19322m  700.0000m   19.8849n -274.6664m  974.6664m 
  689.29322m  700.0000m   19.8971n -274.8078m  974.8078m 
  689.39322m  700.0000m   19.9093n -274.9492m  974.9493m 
  689.49322m  700.0000m   19.9215n -275.0907m  975.0907m 
  689.59322m  700.0000m   19.9336n -275.2321m  975.2321m 
  689.69322m  700.0000m   19.9458n -275.3735m  975.3735m 
  689.79322m  700.0000m   19.9580n -275.5149m  975.5149m 
  689.89322m  700.0000m   19.9702n -275.6564m  975.6564m 
  689.99322m  700.0000m   19.9824n -275.7978m  975.7978m 
  690.09322m  700.0000m   19.9946n -275.9392m  975.9392m 
  690.19322m  700.0000m   20.0068n -276.0806m  976.0806m 
  690.29322m  700.0000m   20.0190n -276.2220m  976.2221m 
  690.39322m  700.0000m   20.0312n -276.3635m  976.3635m 
  690.49322m  700.0000m   20.0434n -276.5049m  976.5049m 
  690.59322m  700.0000m   20.0556n -276.6463m  976.6463m 
  690.69322m  700.0000m   20.0679n -276.7877m  976.7877m 
  690.79322m  700.0000m   20.0801n -276.9291m  976.9292m 
  690.89322m  700.0000m   20.0923n -277.0706m  977.0706m 
  690.99322m  700.0000m   20.1045n -277.2120m  977.2120m 
  691.09322m  700.0000m   20.1167n -277.3534m  977.3534m 
  691.19322m  700.0000m   20.1290n -277.4948m  977.4948m 
  691.29322m  700.0000m   20.1412n -277.6363m  977.6363m 
  691.39322m  700.0000m   20.1534n -277.7777m  977.7777m 
  691.49322m  700.0000m   20.1656n -277.9191m  977.9191m 
  691.59322m  700.0000m   20.1779n -278.0605m  978.0605m 
  691.69322m  700.0000m   20.1901n -278.2019m  978.2020m 
  691.79322m  700.0000m   20.2023n -278.3434m  978.3434m 
  691.89322m  700.0000m   20.2146n -278.4848m  978.4848m 
  691.99322m  700.0000m   20.2268n -278.6262m  978.6262m 
  692.09322m  700.0000m   20.2391n -278.7676m  978.7676m 
  692.19322m  700.0000m   20.2513n -278.9090m  978.9091m 
  692.29322m  700.0000m   20.2635n -279.0505m  979.0505m 
  692.39322m  700.0000m   20.2758n -279.1919m  979.1919m 
  692.49322m  700.0000m   20.2880n -279.3333m  979.3333m 
  692.59322m  700.0000m   20.3003n -279.4747m  979.4747m 
  692.69322m  700.0000m   20.3126n -279.6162m  979.6162m 
  692.79322m  700.0000m   20.3248n -279.7576m  979.7576m 
  692.89322m  700.0000m   20.3371n -279.8990m  979.8990m 
  692.99322m  700.0000m   20.3493n -280.0404m  980.0404m 
  693.09322m  700.0000m   20.3616n -280.1818m  980.1819m 
  693.19322m  700.0000m   20.3739n -280.3233m  980.3233m 
  693.29322m  700.0000m   20.3861n -280.4647m  980.4647m 
  693.39322m  700.0000m   20.3984n -280.6061m  980.6061m 
  693.49322m  700.0000m   20.4107n -280.7475m  980.7475m 
  693.59322m  700.0000m   20.4230n -280.8889m  980.8890m 
  693.69322m  700.0000m   20.4352n -281.0304m  981.0304m 
  693.79322m  700.0000m   20.4475n -281.1718m  981.1718m 
  693.89322m  700.0000m   20.4598n -281.3132m  981.3132m 
  693.99322m  700.0000m   20.4721n -281.4546m  981.4546m 
  694.09322m  700.0000m   20.4844n -281.5961m  981.5961m 
  694.19322m  700.0000m   20.4967n -281.7375m  981.7375m 
  694.29322m  700.0000m   20.5090n -281.8789m  981.8789m 
  694.39322m  700.0000m   20.5212n -282.0203m  982.0203m 
  694.49322m  700.0000m   20.5335n -282.1617m  982.1617m 
  694.59322m  700.0000m   20.5458n -282.3032m  982.3032m 
  694.69322m  700.0000m   20.5581n -282.4446m  982.4446m 
  694.79322m  700.0000m   20.5704n -282.5860m  982.5860m 
  694.89322m  700.0000m   20.5828n -282.7274m  982.7274m 
  694.99322m  700.0000m   20.5951n -282.8688m  982.8689m 
  695.09322m  700.0000m   20.6074n -283.0103m  983.0103m 
  695.19322m  700.0000m   20.6197n -283.1517m  983.1517m 
  695.29322m  700.0000m   20.6320n -283.2931m  983.2931m 
  695.39322m  700.0000m   20.6443n -283.4345m  983.4345m 
  695.49322m  700.0000m   20.6566n -283.5760m  983.5760m 
  695.59322m  700.0000m   20.6690n -283.7174m  983.7174m 
  695.69322m  700.0000m   20.6813n -283.8588m  983.8588m 
  695.79322m  700.0000m   20.6936n -284.0002m  984.0002m 
  695.89322m  700.0000m   20.7059n -284.1416m  984.1416m 
  695.99322m  700.0000m   20.7183n -284.2831m  984.2831m 
  696.09322m  700.0000m   20.7306n -284.4245m  984.4245m 
  696.19322m  700.0000m   20.7429n -284.5659m  984.5659m 
  696.29322m  700.0000m   20.7553n -284.7073m  984.7073m 
  696.39322m  700.0000m   20.7676n -284.8487m  984.8488m 
  696.49322m  700.0000m   20.7800n -284.9902m  984.9902m 
  696.59322m  700.0000m   20.7923n -285.1316m  985.1316m 
  696.69322m  700.0000m   20.8047n -285.2730m  985.2730m 
  696.79322m  700.0000m   20.8170n -285.4144m  985.4144m 
  696.89322m  700.0000m   20.8294n -285.5559m  985.5559m 
  696.99322m  700.0000m   20.8417n -285.6973m  985.6973m 
  697.09322m  700.0000m   20.8541n -285.8387m  985.8387m 
  697.19322m  700.0000m   20.8664n -285.9801m  985.9801m 
  697.29322m  700.0000m   20.8788n -286.1215m  986.1215m 
  697.39322m  700.0000m   20.8912n -286.2630m  986.2630m 
  697.49322m  700.0000m   20.9035n -286.4044m  986.4044m 
  697.59322m  700.0000m   20.9159n -286.5458m  986.5458m 
  697.69322m  700.0000m   20.9283n -286.6872m  986.6872m 
  697.79322m  700.0000m   20.9407n -286.8286m  986.8287m 
  697.89322m  700.0000m   20.9530n -286.9701m  986.9701m 
  697.99322m  700.0000m   20.9654n -287.1115m  987.1115m 
  698.09322m  700.0000m   20.9778n -287.2529m  987.2529m 
  698.19322m  700.0000m   20.9902n -287.3943m  987.3943m 
  698.29322m  700.0000m   21.0026n -287.5358m  987.5358m 
  698.39322m  700.0000m   21.0150n -287.6772m  987.6772m 
  698.49322m  700.0000m   21.0274n -287.8186m  987.8186m 
  698.59322m  700.0000m   21.0397n -287.9600m  987.9600m 
  698.69322m  700.0000m   21.0521n -288.1014m  988.1014m 
  698.79322m  700.0000m   21.0645n -288.2429m  988.2429m 
  698.89322m  700.0000m   21.0770n -288.3843m  988.3843m 
  698.99322m  700.0000m   21.0894n -288.5257m  988.5257m 
  699.09322m  700.0000m   21.1018n -288.6671m  988.6671m 
  699.19322m  700.0000m   21.1142n -288.8085m  988.8086m 
  699.29322m  700.0000m   21.1266n -288.9500m  988.9500m 
  699.39322m  700.0000m   21.1390n -289.0914m  989.0914m 
  699.49322m  700.0000m   21.1514n -289.2328m  989.2328m 
  699.59322m  700.0000m   21.1638n -289.3742m  989.3742m 
  699.69322m  700.0000m   21.1763n -289.5157m  989.5157m 
  699.79322m  700.0000m   21.1887n -289.6571m  989.6571m 
  699.89322m  700.0000m   21.2011n -289.7985m  989.7985m 
  699.99322m  700.0000m   21.2135n -289.9399m  989.9399m 
  700.09322m  700.0000m   21.2260n -290.0813m  990.0813m 
  700.19322m  700.0000m   21.2384n -290.2228m  990.2228m 
  700.29322m  700.0000m   21.2509n -290.3642m  990.3642m 
  700.39322m  700.0000m   21.2633n -290.5056m  990.5056m 
  700.49322m  700.0000m   21.2757n -290.6470m  990.6470m 
  700.59322m  700.0000m   21.2882n -290.7884m  990.7885m 
  700.69322m  700.0000m   21.3006n -290.9299m  990.9299m 
  700.79322m  700.0000m   21.3131n -291.0713m  991.0713m 
  700.89322m  700.0000m   21.3255n -291.2127m  991.2127m 
  700.99322m  700.0000m   21.3380n -291.3541m  991.3541m 
  701.09322m  700.0000m   21.3505n -291.4955m  991.4956m 
  701.19322m  700.0000m   21.3629n -291.6370m  991.6370m 
  701.29322m  700.0000m   21.3754n -291.7784m  991.7784m 
  701.39322m  700.0000m   21.3878n -291.9198m  991.9198m 
  701.49322m  700.0000m   21.4003n -292.0612m  992.0612m 
  701.59322m  700.0000m   21.4128n -292.2027m  992.2027m 
  701.69322m  700.0000m   21.4253n -292.3441m  992.3441m 
  701.79322m  700.0000m   21.4377n -292.4855m  992.4855m 
  701.89322m  700.0000m   21.4502n -292.6269m  992.6269m 
  701.99322m  700.0000m   21.4627n -292.7683m  992.7684m 
  702.09322m  700.0000m   21.4752n -292.9098m  992.9098m 
  702.19322m  700.0000m   21.4877n -293.0512m  993.0512m 
  702.29322m  700.0000m   21.5002n -293.1926m  993.1926m 
  702.39322m  700.0000m   21.5127n -293.3340m  993.3340m 
  702.49322m  700.0000m   21.5252n -293.4754m  993.4755m 
  702.59322m  700.0000m   21.5377n -293.6169m  993.6169m 
  702.69322m  700.0000m   21.5502n -293.7583m  993.7583m 
  702.79322m  700.0000m   21.5627n -293.8997m  993.8997m 
  702.89322m  700.0000m   21.5752n -294.0411m  994.0411m 
  702.99322m  700.0000m   21.5877n -294.1826m  994.1826m 
  703.09322m  700.0000m   21.6002n -294.3240m  994.3240m 
  703.19322m  700.0000m   21.6127n -294.4654m  994.4654m 
  703.29322m  700.0000m   21.6252n -294.6068m  994.6068m 
  703.39322m  700.0000m   21.6378n -294.7482m  994.7483m 
  703.49322m  700.0000m   21.6503n -294.8897m  994.8897m 
  703.59322m  700.0000m   21.6628n -295.0311m  995.0311m 
  703.69322m  700.0000m   21.6753n -295.1725m  995.1725m 
  703.79322m  700.0000m   21.6879n -295.3139m  995.3139m 
  703.89322m  700.0000m   21.7004n -295.4553m  995.4554m 
  703.99322m  700.0000m   21.7129n -295.5968m  995.5968m 
  704.09322m  700.0000m   21.7255n -295.7382m  995.7382m 
  704.19322m  700.0000m   21.7380n -295.8796m  995.8796m 
  704.29322m  700.0000m   21.7506n -296.0210m  996.0210m 
  704.39322m  700.0000m   21.7631n -296.1625m  996.1625m 
  704.49322m  700.0000m   21.7757n -296.3039m  996.3039m 
  704.59322m  700.0000m   21.7882n -296.4453m  996.4453m 
  704.69322m  700.0000m   21.8008n -296.5867m  996.5867m 
  704.79322m  700.0000m   21.8133n -296.7281m  996.7282m 
  704.89322m  700.0000m   21.8259n -296.8696m  996.8696m 
  704.99322m  700.0000m   21.8385n -297.0110m  997.0110m 
  705.09322m  700.0000m   21.8510n -297.1524m  997.1524m 
  705.19322m  700.0000m   21.8636n -297.2938m  997.2938m 
  705.29322m  700.0000m   21.8762n -297.4352m  997.4353m 
  705.39322m  700.0000m   21.8887n -297.5767m  997.5767m 
  705.49322m  700.0000m   21.9013n -297.7181m  997.7181m 
  705.59322m  700.0000m   21.9139n -297.8595m  997.8595m 
  705.69322m  700.0000m   21.9265n -298.0009m  998.0009m 
  705.79322m  700.0000m   21.9391n -298.1424m  998.1424m 
  705.89322m  700.0000m   21.9517n -298.2838m  998.2838m 
  705.99322m  700.0000m   21.9643n -298.4252m  998.4252m 
  706.09322m  700.0000m   21.9769n -298.5666m  998.5666m 
  706.19322m  700.0000m   21.9895n -298.7080m  998.7080m 
  706.29322m  700.0000m   22.0021n -298.8495m  998.8495m 
  706.39322m  700.0000m   22.0147n -298.9909m  998.9909m 
  706.49322m  700.0000m   22.0273n -299.1323m  999.1323m 
  706.59322m  700.0000m   22.0399n -299.2737m  999.2737m 
  706.69322m  700.0000m   22.0525n -299.4151m  999.4152m 
  706.79322m  700.0000m   22.0651n -299.5566m  999.5566m 
  706.89322m  700.0000m   22.0777n -299.6980m  999.6980m 
  706.99322m  700.0000m   22.0904n -299.8394m  999.8394m 
  707.09322m  700.0000m   22.1030n -299.9808m  999.9808m 
y
 cross_point=-494.9747m
 max_1= 431.6740m    at=-253.1068m
             from=-494.9747m    to= 494.9747m
 max_2= 431.6740m    at= 253.0932m
             from=-494.9747m    to= 494.9747m
 snm= 305.2396m
1****** HSPICE -- Q-2020.03-SP2-2 linux64 (Nov  1 2020) ******                  
 ******  
 .title noise margin in hold operation

 ****** operating point information tnom=  25.000 temp=  25.000 ******
 ****** operating point status is all       simulation time is     0.     
    node    =voltage      node    =voltage      node    =voltage

 +0:bl      = 700.0000m 0:blb     = 700.0000m 0:gl      = 369.3009m
 +0:gr      = 369.3009m 0:q       = 369.3009m 0:qb      = 369.3009m
 +0:u       =   0.      0:v1      = 522.2703m 0:v2      = 522.2703m
 +0:vdd     = 700.0000m 0:wl      =   0.      0:x       = 658.1762m


 **** voltage sources

 subckt                                   
 element  0:vu       0:vvdd     0:vwl     
  volts      0.       700.0000m    0.     
  current    0.      -998.3374n  305.0209f
  power      0.       698.8361n    0.     

     total voltage source power dissipation=  698.8361n       watts



 **** voltage-controlled voltage sources


 subckt                                              
 element  0:eli      0:ev1      0:eri      0:ev2     
  volts    369.3009m  522.2703m  369.3009m  522.2703m
  current   16.1798f    0.        16.1798f    0.     





 **** mosfets


 subckt                                                                    
 element  0:mpr      0:mnr      0:mpl      0:mnl      0:mnpr     0:mnpl    
 model    0:pmos_sra 0:nmos_sra 0:pmos_sra 0:nmos_sra 0:nmos_sra 0:nmos_sra
 region   Subth      Subth      Subth      Subth      Cutoff     Cutoff    
  id      -499.1686n  499.1686n -499.1686n  499.1686n  938.2452a  938.2452a
  ibs        0.         0.         0.         0.         0.         0.     
  ibd        0.         0.         0.         0.         0.         0.     
  vgs     -330.6991m  369.3009m -330.6991m  369.3009m -369.3009m -369.3009m
  vds     -330.6991m  369.3009m -330.6991m  369.3009m  330.6991m  330.6991m
  vbs      -41.8238m  658.1762m  -41.8238m  658.1762m  288.8753m  288.8753m
  vth     -334.7549m  408.4973m -334.7549m  408.4973m  408.7099m  408.7099m
  vdsat    -95.5226m   79.1197m  -95.5226m   79.1197m   70.6690m   70.6690m
  vod        4.0558m  -39.1964m    4.0558m  -39.1964m -778.0108m -778.0108m
  beta       1.6413m    2.1736m    1.6413m    2.1736m    2.1736m    2.1736m
  gam eff    0.         0.         0.         0.         0.         0.     
  gm        12.9907u   15.3998u   12.9907u   15.3998u  8.590e-21  8.590e-21
  gds      301.4608n  239.6269n  301.4608n  239.6269n  228.2566a  228.2566a
  gmb        4.8922p   12.0124p    4.8922p   12.0124p  1.316e-20  1.316e-20
  cdtot     10.1750a   10.2205a   10.1750a   10.2205a   10.2225a   10.2225a
  cgtot     31.2784a   26.1428a   31.2784a   26.1428a   20.4450a   20.4450a
  cstot     17.2863a   14.0661a   17.2863a   14.0661a   10.2225a   10.2225a
  cbtot      0.         0.         0.         0.         0.         0.     
  cgs       21.2138a   15.9421a   21.2138a   15.9421a   10.2225a   10.2225a
  cgd       10.0646a   10.2007a   10.0646a   10.2007a   10.2225a   10.2225a




          ***** job concluded
 ******  
 .title noise margin in hold operation

 ****** job statistics summary tnom=  25.000 temp=  25.000 ******
  
 ******  Machine Information  ******
 CPU:
 model name	: AMD EPYC 7713 64-Core Processor
 cpu MHz	: 2000.000
  
 OS:
 Linux version 3.10.0-1160.88.1.el7.x86_64 (mockbuild@kbuilder.bsys.centos.org) (gcc version 4.8.5 20150623 (Red Hat 4.8.5-44) (GCC) ) #1 SMP Tue Mar 7 15:41:52 UTC 2023


  ******  HSPICE Threads Information  ******

  Command Line Threads Count :     1
  Available CPU Count        :   256
  Actual Threads Count       :     1


  ******  Circuit Statistics  ******
  # nodes       =      13 # elements   =      15
  # resistors   =       0 # capacitors =       2 # inductors   =       0
  # mutual_inds =       0 # vccs       =       0 # vcvs        =       4
  # cccs        =       0 # ccvs       =       0 # volt_srcs   =       3
  # curr_srcs   =       0 # diodes     =       0 # bjts        =       0
  # jfets       =       0 # mosfets    =       6 # U elements  =       0
  # T elements  =       0 # W elements =       0 # B elements  =       0
  # S elements  =       0 # P elements =       0 # va device   =       0
  # vector_srcs =       0 # N elements =       0


  ******  Runtime Statistics (seconds)  ******

  analysis           time    # points   tot. iter  conv.iter
  op point           0.01           1          10
  dc sweep           1.07       14143       42435
  readin             0.02
  errchk             0.00
  setup              0.00
  output             0.00


           peak memory used        406.29 megabytes
           total cpu time            1.19 seconds
           total elapsed time        1.35 seconds
           job started at     22:04:07 03/19/2025
           job ended   at     22:04:08 03/19/2025
           job total runtime         1.35 seconds


 lic: Release hspice token(s) 
 lic: total license checkout elapse time:        0.15(s)
