 ****** HSPICE -- Q-2020.03-SP2-2 linux64 (Nov  1 2020) ******                  
  Copyright (c) 1986 - 2025 by Synopsys, Inc. All Rights Reserved.              
  This software and the associated documentation are proprietary
  to Synopsys, Inc. This software may only be used in accordance
  with the terms and conditions of a written license agreement with
  Synopsys, Inc. All other use, reproduction, or distribution of
  this software is strictly prohibited.
  Input File: SRAM_SNM_TT_DifSupply.sp                                          
  Command line options: /RAID2/cad/synopsys/hspice/2020.03-sp2-2/hspice/linux64/hspice -i SRAM_SNM_TT_DifSupply.sp -o SRAM_SNM_TT_DifSupply.lis
  Start time: Sun Mar 23 23:02:14 2025
 lic:  
 lic: FLEXlm: SDK_12.6 
 lic: USER:   es25MCS042           HOSTNAME: ee28 
 lic: HOSTID: "d85ed3efc19a"       PID:      209113 
 lic: Using FLEXlm license file: 
 lic: 26585@lshc 
 lic: Checkout 1 hspice 
 lic: License/Maintenance for hspice will expire on 14-may-2025/2024.09 
 lic: 191(in_use)/1100(total) FLOATING license(s) on SERVER 26585@lshc 
 lic:   
  
      
             
 Warning:'Floating bulk' occurs 1 times
 Summary of floating bulk:
 -----------------------
 |Node      |Device    |
 |----------+----------|
 |x         |mpr       |
 -----------------------
              
 *****************************************************************
 ******  option summary
 ******
 runlvl  = 3         bypass  = 2.0000    
 ******
 .title noise margin in hold operation

 ****** dc transfer curves tnom=  25.000 temp=  25.000 ******
x

 volt         voltage    voltage    voltage    voltage   
             q          qb         gl         gr         
 -494.97475m   19.0303n  700.0000m  -17.2580n  700.0000m 
 -494.87475m   19.1017n  700.0000m  141.4040u  699.8586m 
 -494.77475m   19.1736n  700.0000m  282.8253u  699.7172m 
 -494.67475m   19.2458n  700.0000m  424.2466u  699.5758m 
 -494.57475m   19.3185n  700.0000m  565.6679u  699.4343m 
 -494.47475m   19.3916n  700.0000m  707.0892u  699.2929m 
 -494.37475m   19.4652n  700.0000m  848.5105u  699.1515m 
 -494.27475m   19.5391n  700.0000m  989.9317u  699.0101m 
 -494.17475m   19.6135n  700.0000m    1.1314m  698.8686m 
 -494.07475m   19.6883n  700.0000m    1.2728m  698.7272m 
 -493.97475m   19.7635n  700.0000m    1.4142m  698.5858m 
 -493.87475m   19.8392n  700.0000m    1.5556m  698.4444m 
 -493.77475m   19.9153n  700.0000m    1.6970m  698.3030m 
 -493.67475m   19.9919n  700.0000m    1.8385m  698.1615m 
 -493.57475m   20.0689n  700.0000m    1.9799m  698.0201m 
 -493.47475m   20.1463n  700.0000m    2.1213m  697.8787m 
 -493.37475m   20.2242n  700.0000m    2.2627m  697.7373m 
 -493.27475m   20.3025n  700.0000m    2.4041m  697.5959m 
 -493.17475m   20.3813n  700.0000m    2.5456m  697.4544m 
 -493.07475m   20.4606n  700.0000m    2.6870m  697.3130m 
 -492.97475m   20.5403n  700.0000m    2.8284m  697.1716m 
 -492.87475m   20.6204n  700.0000m    2.9698m  697.0302m 
 -492.77475m   20.7010n  700.0000m    3.1113m  696.8888m 
 -492.67475m   20.7821n  700.0000m    3.2527m  696.7473m 
 -492.57475m   20.8637n  700.0000m    3.3941m  696.6059m 
 -492.47475m   20.9457n  700.0000m    3.5355m  696.4645m 
 -492.37475m   21.0282n  700.0000m    3.6769m  696.3231m 
 -492.27475m   21.1112n  700.0000m    3.8184m  696.1816m 
 -492.17475m   21.1947n  700.0000m    3.9598m  696.0402m 
 -492.07475m   21.2786n  700.0000m    4.1012m  695.8988m 
 -491.97475m   21.3631n  700.0000m    4.2426m  695.7574m 
 -491.87475m   21.4480n  700.0000m    4.3840m  695.6160m 
 -491.77475m   21.5334n  700.0000m    4.5255m  695.4745m 
 -491.67475m   21.6193n  700.0000m    4.6669m  695.3331m 
 -491.57475m   21.7057n  700.0000m    4.8083m  695.1917m 
 -491.47475m   21.7926n  700.0000m    4.9497m  695.0503m 
 -491.37475m   21.8800n  700.0000m    5.0911m  694.9089m 
 -491.27475m   21.9679n  700.0000m    5.2326m  694.7674m 
 -491.17475m   22.0563n  700.0000m    5.3740m  694.6260m 
 -491.07475m   22.1453n  700.0000m    5.5154m  694.4846m 
 -490.97475m   22.2347n  700.0000m    5.6568m  694.3432m 
 -490.87475m   22.3247n  700.0000m    5.7983m  694.2017m 
 -490.77475m   22.4151n  700.0000m    5.9397m  694.0603m 
 -490.67475m   22.5061n  700.0000m    6.0811m  693.9189m 
 -490.57475m   22.5977n  700.0000m    6.2225m  693.7775m 
 -490.47475m   22.6897n  700.0000m    6.3639m  693.6361m 
 -490.37475m   22.7823n  700.0000m    6.5054m  693.4946m 
 -490.27475m   22.8754n  700.0000m    6.6468m  693.3532m 
 -490.17475m   22.9691n  700.0000m    6.7882m  693.2118m 
 -490.07475m   23.0633n  700.0000m    6.9296m  693.0704m 
 -489.97475m   23.1580n  700.0000m    7.0710m  692.9290m 
 -489.87475m   23.2533n  700.0000m    7.2125m  692.7875m 
 -489.77475m   23.3492n  700.0000m    7.3539m  692.6461m 
 -489.67475m   23.4456n  700.0000m    7.4953m  692.5047m 
 -489.57475m   23.5425n  700.0000m    7.6367m  692.3633m 
 -489.47475m   23.6400n  700.0000m    7.7782m  692.2218m 
 -489.37475m   23.7381n  700.0000m    7.9196m  692.0804m 
 -489.27475m   23.8367n  700.0000m    8.0610m  691.9390m 
 -489.17475m   23.9360n  700.0000m    8.2024m  691.7976m 
 -489.07475m   24.0357n  700.0000m    8.3438m  691.6562m 
 -488.97475m   24.1361n  700.0000m    8.4853m  691.5147m 
 -488.87475m   24.2370n  700.0000m    8.6267m  691.3733m 
 -488.77475m   24.3386n  700.0000m    8.7681m  691.2319m 
 -488.67475m   24.4407n  700.0000m    8.9095m  691.0905m 
 -488.57475m   24.5434n  700.0000m    9.0509m  690.9491m 
 -488.47475m   24.6467n  700.0000m    9.1924m  690.8076m 
 -488.37475m   24.7506n  700.0000m    9.3338m  690.6662m 
 -488.27475m   24.8551n  700.0000m    9.4752m  690.5248m 
 -488.17475m   24.9601n  700.0000m    9.6166m  690.3834m 
 -488.07475m   25.0658n  700.0000m    9.7581m  690.2420m 
 -487.97475m   25.1722n  700.0000m    9.8995m  690.1005m 
 -487.87475m   25.2791n  700.0000m   10.0409m  689.9591m 
 -487.77475m   25.3866n  700.0000m   10.1823m  689.8177m 
 -487.67475m   25.4948n  700.0000m   10.3237m  689.6763m 
 -487.57475m   25.6036n  700.0000m   10.4652m  689.5348m 
 -487.47475m   25.7130n  700.0000m   10.6066m  689.3934m 
 -487.37475m   25.8230n  700.0000m   10.7480m  689.2520m 
 -487.27475m   25.9337n  700.0000m   10.8894m  689.1106m 
 -487.17475m   26.0451n  700.0000m   11.0308m  688.9692m 
 -487.07475m   26.1570n  700.0000m   11.1723m  688.8277m 
 -486.97475m   26.2696n  700.0000m   11.3137m  688.6863m 
 -486.87475m   26.3829n  700.0000m   11.4551m  688.5449m 
 -486.77475m   26.4968n  700.0000m   11.5965m  688.4035m 
 -486.67475m   26.6114n  700.0000m   11.7379m  688.2621m 
 -486.57475m   26.7266n  700.0000m   11.8794m  688.1206m 
 -486.47475m   26.8425n  700.0000m   12.0208m  687.9792m 
 -486.37475m   26.9591n  700.0000m   12.1622m  687.8378m 
 -486.27475m   27.0764n  700.0000m   12.3036m  687.6964m 
 -486.17475m   27.1943n  700.0000m   12.4451m  687.5549m 
 -486.07475m   27.3129n  700.0000m   12.5865m  687.4135m 
 -485.97475m   27.4322n  700.0000m   12.7279m  687.2721m 
 -485.87475m   27.5522n  700.0000m   12.8693m  687.1307m 
 -485.77475m   27.6728n  700.0000m   13.0107m  686.9893m 
 -485.67475m   27.7942n  700.0000m   13.1522m  686.8478m 
 -485.57475m   27.9163n  700.0000m   13.2936m  686.7064m 
 -485.47475m   28.0390n  700.0000m   13.4350m  686.5650m 
 -485.37475m   28.1625n  700.0000m   13.5764m  686.4236m 
 -485.27475m   28.2867n  700.0000m   13.7178m  686.2822m 
 -485.17475m   28.4116n  700.0000m   13.8593m  686.1407m 
 -485.07475m   28.5373n  700.0000m   14.0007m  685.9993m 
 -484.97475m   28.6636n  700.0000m   14.1421m  685.8579m 
 -484.87475m   28.7907n  700.0000m   14.2835m  685.7165m 
 -484.77475m   28.9185n  700.0000m   14.4250m  685.5751m 
 -484.67475m   29.0471n  700.0000m   14.5664m  685.4336m 
 -484.57475m   29.1764n  700.0000m   14.7078m  685.2922m 
 -484.47475m   29.3065n  700.0000m   14.8492m  685.1508m 
 -484.37475m   29.4373n  700.0000m   14.9906m  685.0094m 
 -484.27475m   29.5688n  700.0000m   15.1321m  684.8679m 
 -484.17475m   29.7011n  700.0000m   15.2735m  684.7265m 
 -484.07475m   29.8342n  700.0000m   15.4149m  684.5851m 
 -483.97475m   29.9681n  700.0000m   15.5563m  684.4437m 
 -483.87475m   30.1027n  700.0000m   15.6977m  684.3023m 
 -483.77475m   30.2381n  700.0000m   15.8392m  684.1608m 
 -483.67475m   30.3743n  700.0000m   15.9806m  684.0194m 
 -483.57475m   30.5113n  700.0000m   16.1220m  683.8780m 
 -483.47475m   30.6490n  700.0000m   16.2634m  683.7366m 
 -483.37475m   30.7876n  700.0000m   16.4048m  683.5952m 
 -483.27475m   30.9270n  700.0000m   16.5463m  683.4537m 
 -483.17475m   31.0671n  700.0000m   16.6877m  683.3123m 
 -483.07475m   31.2081n  700.0000m   16.8291m  683.1709m 
 -482.97475m   31.3499n  700.0000m   16.9705m  683.0295m 
 -482.87475m   31.4925n  700.0000m   17.1120m  682.8880m 
 -482.77475m   31.6359n  700.0000m   17.2534m  682.7466m 
 -482.67475m   31.7802n  700.0000m   17.3948m  682.6052m 
 -482.57475m   31.9253n  700.0000m   17.5362m  682.4638m 
 -482.47475m   32.0712n  700.0000m   17.6776m  682.3224m 
 -482.37475m   32.2180n  700.0000m   17.8191m  682.1809m 
 -482.27475m   32.3656n  700.0000m   17.9605m  682.0395m 
 -482.17475m   32.5141n  700.0000m   18.1019m  681.8981m 
 -482.07475m   32.6634n  700.0000m   18.2433m  681.7567m 
 -481.97475m   32.8136n  700.0000m   18.3847m  681.6153m 
 -481.87475m   32.9647n  700.0000m   18.5262m  681.4738m 
 -481.77475m   33.1166n  700.0000m   18.6676m  681.3324m 
 -481.67475m   33.2694n  700.0000m   18.8090m  681.1910m 
 -481.57475m   33.4231n  700.0000m   18.9504m  681.0496m 
 -481.47475m   33.5777n  700.0000m   19.0919m  680.9082m 
 -481.37475m   33.7332n  700.0000m   19.2333m  680.7667m 
 -481.27475m   33.8895n  700.0000m   19.3747m  680.6253m 
 -481.17475m   34.0468n  700.0000m   19.5161m  680.4839m 
 -481.07475m   34.2050n  700.0000m   19.6575m  680.3425m 
 -480.97475m   34.3641n  700.0000m   19.7990m  680.2010m 
 -480.87475m   34.5241n  700.0000m   19.9404m  680.0596m 
 -480.77475m   34.6851n  700.0000m   20.0818m  679.9182m 
 -480.67475m   34.8470n  700.0000m   20.2232m  679.7768m 
 -480.57475m   35.0098n  700.0000m   20.3646m  679.6354m 
 -480.47475m   35.1735n  700.0000m   20.5061m  679.4939m 
 -480.37475m   35.3382n  700.0000m   20.6475m  679.3525m 
 -480.27475m   35.5039n  700.0000m   20.7889m  679.2111m 
 -480.17475m   35.6705n  700.0000m   20.9303m  679.0697m 
 -480.07475m   35.8381n  700.0000m   21.0717m  678.9283m 
 -479.97475m   36.0066n  700.0000m   21.2132m  678.7868m 
 -479.87475m   36.1761n  700.0000m   21.3546m  678.6454m 
 -479.77475m   36.3466n  700.0000m   21.4960m  678.5040m 
 -479.67475m   36.5181n  700.0000m   21.6374m  678.3626m 
 -479.57475m   36.6905n  700.0000m   21.7789m  678.2211m 
 -479.47475m   36.8640n  700.0000m   21.9203m  678.0797m 
 -479.37475m   37.0385n  700.0000m   22.0617m  677.9383m 
 -479.27475m   37.2140n  700.0000m   22.2031m  677.7969m 
 -479.17475m   37.3905n  700.0000m   22.3445m  677.6555m 
 -479.07475m   37.5680n  700.0000m   22.4860m  677.5140m 
 -478.97475m   37.7465n  700.0000m   22.6274m  677.3726m 
 -478.87475m   37.9261n  700.0000m   22.7688m  677.2312m 
 -478.77475m   38.1067n  700.0000m   22.9102m  677.0898m 
 -478.67475m   38.2883n  700.0000m   23.0516m  676.9484m 
 -478.57475m   38.4710n  700.0000m   23.1931m  676.8069m 
 -478.47475m   38.6548n  700.0000m   23.3345m  676.6655m 
 -478.37475m   38.8396n  700.0000m   23.4759m  676.5241m 
 -478.27475m   39.0255n  700.0000m   23.6173m  676.3827m 
 -478.17475m   39.2125n  700.0000m   23.7588m  676.2413m 
 -478.07475m   39.4005n  700.0000m   23.9002m  676.0998m 
 -477.97475m   39.5896n  700.0000m   24.0416m  675.9584m 
 -477.87475m   39.7799n  700.0000m   24.1830m  675.8170m 
 -477.77475m   39.9712n  700.0000m   24.3244m  675.6756m 
 -477.67475m   40.1636n  700.0000m   24.4659m  675.5341m 
 -477.57475m   40.3572n  700.0000m   24.6073m  675.3927m 
 -477.47475m   40.5518n  700.0000m   24.7487m  675.2513m 
 -477.37475m   40.7476n  700.0000m   24.8901m  675.1099m 
 -477.27475m   40.9445n  700.0000m   25.0315m  674.9685m 
 -477.17475m   41.1426n  700.0000m   25.1730m  674.8270m 
 -477.07475m   41.3418n  700.0000m   25.3144m  674.6856m 
 -476.97475m   41.5422n  700.0000m   25.4558m  674.5442m 
 -476.87475m   41.7437n  700.0000m   25.5972m  674.4028m 
 -476.77475m   41.9464n  700.0000m   25.7386m  674.2614m 
 -476.67475m   42.1502n  700.0000m   25.8801m  674.1199m 
 -476.57475m   42.3552n  700.0000m   26.0215m  673.9785m 
 -476.47475m   42.5615n  700.0000m   26.1629m  673.8371m 
 -476.37475m   42.7689n  700.0000m   26.3043m  673.6957m 
 -476.27475m   42.9775n  700.0000m   26.4458m  673.5542m 
 -476.17475m   43.1873n  700.0000m   26.5872m  673.4128m 
 -476.07475m   43.3983n  700.0000m   26.7286m  673.2714m 
 -475.97475m   43.6106n  700.0000m   26.8700m  673.1300m 
 -475.87475m   43.8240n  700.0000m   27.0114m  672.9886m 
 -475.77475m   44.0388n  700.0000m   27.1529m  672.8471m 
 -475.67475m   44.2547n  700.0000m   27.2943m  672.7057m 
 -475.57475m   44.4719n  700.0000m   27.4357m  672.5643m 
 -475.47475m   44.6904n  700.0000m   27.5771m  672.4229m 
 -475.37475m   44.9101n  700.0000m   27.7185m  672.2815m 
 -475.27475m   45.1311n  700.0000m   27.8600m  672.1400m 
 -475.17475m   45.3534n  700.0000m   28.0014m  671.9986m 
 -475.07475m   45.5769n  700.0000m   28.1428m  671.8572m 
 -474.97475m   45.8018n  700.0000m   28.2842m  671.7158m 
 -474.87475m   46.0280n  700.0000m   28.4256m  671.5744m 
 -474.77475m   46.2554n  700.0000m   28.5671m  671.4329m 
 -474.67475m   46.4842n  700.0000m   28.7085m  671.2915m 
 -474.57475m   46.7143n  700.0000m   28.8499m  671.1501m 
 -474.47475m   46.9457n  700.0000m   28.9913m  671.0087m 
 -474.37475m   47.1785n  700.0000m   29.1328m  670.8672m 
 -474.27475m   47.4126n  700.0000m   29.2742m  670.7258m 
 -474.17475m   47.6481n  700.0000m   29.4156m  670.5844m 
 -474.07475m   47.8850n  700.0000m   29.5570m  670.4430m 
 -473.97475m   48.1232n  700.0000m   29.6984m  670.3016m 
 -473.87475m   48.3628n  700.0000m   29.8399m  670.1601m 
 -473.77475m   48.6037n  700.0000m   29.9813m  670.0187m 
 -473.67475m   48.8461n  700.0000m   30.1227m  669.8773m 
 -473.57475m   49.0899n  700.0000m   30.2641m  669.7359m 
 -473.47475m   49.3351n  700.0000m   30.4055m  669.5945m 
 -473.37475m   49.5817n  700.0000m   30.5470m  669.4530m 
 -473.27475m   49.8297n  700.0000m   30.6884m  669.3116m 
 -473.17475m   50.0792n  700.0000m   30.8298m  669.1702m 
 -473.07475m   50.3301n  700.0000m   30.9712m  669.0288m 
 -472.97475m   50.5824n  700.0000m   31.1127m  668.8874m 
 -472.87475m   50.8363n  700.0000m   31.2541m  668.7459m 
 -472.77475m   51.0916n  700.0000m   31.3955m  668.6045m 
 -472.67475m   51.3483n  700.0000m   31.5369m  668.4631m 
 -472.57475m   51.6066n  700.0000m   31.6783m  668.3217m 
 -472.47475m   51.8663n  700.0000m   31.8198m  668.1802m 
 -472.37475m   52.1276n  700.0000m   31.9612m  668.0388m 
 -472.27475m   52.3904n  700.0000m   32.1026m  667.8974m 
 -472.17475m   52.6547n  700.0000m   32.2440m  667.7560m 
 -472.07475m   52.9205n  700.0000m   32.3854m  667.6146m 
 -471.97475m   53.1879n  700.0000m   32.5269m  667.4731m 
 -471.87475m   53.4568n  700.0000m   32.6683m  667.3317m 
 -471.77475m   53.7272n  700.0000m   32.8097m  667.1903m 
 -471.67475m   53.9993n  699.9999m   32.9511m  667.0489m 
 -471.57475m   54.2729n  699.9999m   33.0925m  666.9075m 
 -471.47475m   54.5481n  699.9999m   33.2340m  666.7660m 
 -471.37475m   54.8249n  699.9999m   33.3754m  666.6246m 
 -471.27475m   55.1033n  699.9999m   33.5168m  666.4832m 
 -471.17475m   55.3833n  699.9999m   33.6582m  666.3418m 
 -471.07475m   55.6649n  699.9999m   33.7997m  666.2004m 
 -470.97475m   55.9482n  699.9999m   33.9411m  666.0589m 
 -470.87475m   56.2331n  699.9999m   34.0825m  665.9175m 
 -470.77475m   56.5196n  699.9999m   34.2239m  665.7761m 
 -470.67475m   56.8079n  699.9999m   34.3653m  665.6347m 
 -470.57475m   57.0977n  699.9999m   34.5068m  665.4932m 
 -470.47475m   57.3893n  699.9999m   34.6482m  665.3518m 
 -470.37475m   57.6826n  699.9999m   34.7896m  665.2104m 
 -470.27475m   57.9775n  699.9999m   34.9310m  665.0690m 
 -470.17475m   58.2742n  699.9999m   35.0724m  664.9276m 
 -470.07475m   58.5725n  699.9999m   35.2139m  664.7861m 
 -469.97475m   58.8727n  699.9999m   35.3553m  664.6447m 
 -469.87475m   59.1745n  699.9999m   35.4967m  664.5033m 
 -469.77475m   59.4781n  699.9999m   35.6381m  664.3619m 
 -469.67475m   59.7835n  699.9999m   35.7795m  664.2205m 
 -469.57475m   60.0906n  699.9999m   35.9210m  664.0790m 
 -469.47475m   60.3995n  699.9999m   36.0624m  663.9376m 
 -469.37475m   60.7102n  699.9999m   36.2038m  663.7962m 
 -469.27475m   61.0227n  699.9999m   36.3452m  663.6548m 
 -469.17475m   61.3370n  699.9999m   36.4867m  663.5134m 
 -469.07475m   61.6531n  699.9999m   36.6281m  663.3719m 
 -468.97475m   61.9711n  699.9999m   36.7695m  663.2305m 
 -468.87475m   62.2909n  699.9999m   36.9109m  663.0891m 
 -468.77475m   62.6126n  699.9999m   37.0523m  662.9477m 
 -468.67475m   62.9361n  699.9999m   37.1938m  662.8062m 
 -468.57475m   63.2615n  699.9999m   37.3352m  662.6648m 
 -468.47475m   63.5888n  699.9999m   37.4766m  662.5234m 
 -468.37475m   63.9180n  699.9999m   37.6180m  662.3820m 
 -468.27475m   64.2491n  699.9999m   37.7594m  662.2406m 
 -468.17475m   64.5821n  699.9999m   37.9009m  662.0991m 
 -468.07475m   64.9171n  699.9999m   38.0423m  661.9577m 
 -467.97475m   65.2540n  699.9999m   38.1837m  661.8163m 
 -467.87475m   65.5928n  699.9999m   38.3251m  661.6749m 
 -467.77475m   65.9336n  699.9999m   38.4665m  661.5335m 
 -467.67475m   66.2764n  699.9999m   38.6080m  661.3920m 
 -467.57475m   66.6212n  699.9999m   38.7494m  661.2506m 
 -467.47475m   66.9680n  699.9999m   38.8908m  661.1092m 
 -467.37475m   67.3168n  699.9999m   39.0322m  660.9678m 
 -467.27475m   67.6676n  699.9999m   39.1737m  660.8264m 
 -467.17475m   68.0204n  699.9999m   39.3151m  660.6849m 
 -467.07475m   68.3753n  699.9999m   39.4565m  660.5435m 
 -466.97475m   68.7323n  699.9999m   39.5979m  660.4021m 
 -466.87475m   69.0913n  699.9999m   39.7393m  660.2607m 
 -466.77475m   69.4524n  699.9999m   39.8808m  660.1192m 
 -466.67475m   69.8156n  699.9999m   40.0222m  659.9778m 
 -466.57475m   70.1809n  699.9999m   40.1636m  659.8364m 
 -466.47475m   70.5483n  699.9999m   40.3050m  659.6950m 
 -466.37475m   70.9179n  699.9999m   40.4464m  659.5536m 
 -466.27475m   71.2896n  699.9999m   40.5879m  659.4121m 
 -466.17475m   71.6635n  699.9999m   40.7293m  659.2707m 
 -466.07475m   72.0395n  699.9999m   40.8707m  659.1293m 
 -465.97475m   72.4177n  699.9999m   41.0121m  658.9879m 
 -465.87475m   72.7982n  699.9999m   41.1535m  658.8465m 
 -465.77475m   73.1808n  699.9999m   41.2950m  658.7050m 
 -465.67475m   73.5656n  699.9999m   41.4364m  658.5636m 
 -465.57475m   73.9527n  699.9999m   41.5778m  658.4222m 
 -465.47475m   74.3420n  699.9999m   41.7192m  658.2808m 
 -465.37475m   74.7336n  699.9999m   41.8607m  658.1394m 
 -465.27475m   75.1275n  699.9999m   42.0021m  657.9979m 
 -465.17475m   75.5236n  699.9999m   42.1435m  657.8565m 
 -465.07475m   75.9221n  699.9999m   42.2849m  657.7151m 
 -464.97475m   76.3228n  699.9999m   42.4263m  657.5737m 
 -464.87475m   76.7259n  699.9999m   42.5678m  657.4322m 
 -464.77475m   77.1313n  699.9999m   42.7092m  657.2908m 
 -464.67475m   77.5391n  699.9999m   42.8506m  657.1494m 
 -464.57475m   77.9493n  699.9999m   42.9920m  657.0080m 
 -464.47475m   78.3618n  699.9999m   43.1334m  656.8666m 
 -464.37475m   78.7767n  699.9999m   43.2749m  656.7251m 
 -464.27475m   79.1941n  699.9999m   43.4163m  656.5837m 
 -464.17475m   79.6139n  699.9999m   43.5577m  656.4423m 
 -464.07475m   80.0361n  699.9999m   43.6991m  656.3009m 
 -463.97475m   80.4607n  699.9999m   43.8405m  656.1595m 
 -463.87475m   80.8878n  699.9999m   43.9820m  656.0180m 
 -463.77475m   81.3174n  699.9999m   44.1234m  655.8766m 
 -463.67475m   81.7495n  699.9999m   44.2648m  655.7352m 
 -463.57475m   82.1841n  699.9999m   44.4062m  655.5938m 
 -463.47475m   82.6213n  699.9999m   44.5477m  655.4524m 
 -463.37475m   83.0610n  699.9999m   44.6891m  655.3109m 
 -463.27475m   83.5032n  699.9999m   44.8305m  655.1695m 
 -463.17475m   83.9480n  699.9999m   44.9719m  655.0281m 
 -463.07475m   84.3954n  699.9999m   45.1133m  654.8867m 
 -462.97475m   84.8454n  699.9999m   45.2548m  654.7453m 
 -462.87475m   85.2980n  699.9999m   45.3962m  654.6038m 
 -462.77475m   85.7532n  699.9999m   45.5376m  654.4624m 
 -462.67475m   86.2111n  699.9999m   45.6790m  654.3210m 
 -462.57475m   86.6716n  699.9999m   45.8204m  654.1796m 
 -462.47475m   87.1348n  699.9999m   45.9619m  654.0381m 
 -462.37475m   87.6007n  699.9999m   46.1033m  653.8967m 
 -462.27475m   88.0694n  699.9999m   46.2447m  653.7553m 
 -462.17475m   88.5407n  699.9999m   46.3861m  653.6139m 
 -462.07475m   89.0148n  699.9999m   46.5275m  653.4725m 
 -461.97475m   89.4916n  699.9999m   46.6690m  653.3310m 
 -461.87475m   89.9713n  699.9999m   46.8104m  653.1896m 
 -461.77475m   90.4537n  699.9999m   46.9518m  653.0482m 
 -461.67475m   90.9389n  699.9999m   47.0932m  652.9068m 
 -461.57475m   91.4269n  699.9999m   47.2346m  652.7654m 
 -461.47475m   91.9178n  699.9999m   47.3761m  652.6239m 
 -461.37475m   92.4115n  699.9999m   47.5175m  652.4825m 
 -461.27475m   92.9081n  699.9999m   47.6589m  652.3411m 
 -461.17475m   93.4076n  699.9999m   47.8003m  652.1997m 
 -461.07475m   93.9100n  699.9999m   47.9418m  652.0583m 
 -460.97475m   94.4153n  699.9999m   48.0832m  651.9168m 
 -460.87475m   94.9235n  699.9999m   48.2246m  651.7754m 
 -460.77475m   95.4347n  699.9999m   48.3660m  651.6340m 
 -460.67475m   95.9489n  699.9999m   48.5074m  651.4926m 
 -460.57475m   96.4661n  699.9999m   48.6489m  651.3511m 
 -460.47475m   96.9863n  699.9999m   48.7903m  651.2097m 
 -460.37475m   97.5095n  699.9999m   48.9317m  651.0683m 
 -460.27475m   98.0357n  699.9999m   49.0731m  650.9269m 
 -460.17475m   98.5650n  699.9999m   49.2145m  650.7855m 
 -460.07475m   99.0974n  699.9999m   49.3560m  650.6440m 
 -459.97475m   99.6329n  699.9999m   49.4974m  650.5026m 
 -459.87475m  100.1715n  699.9999m   49.6388m  650.3612m 
 -459.77475m  100.7133n  699.9999m   49.7802m  650.2198m 
 -459.67475m  101.2582n  699.9999m   49.9216m  650.0784m 
 -459.57475m  101.8063n  699.9999m   50.0631m  649.9369m 
 -459.47475m  102.3575n  699.9999m   50.2045m  649.7955m 
 -459.37475m  102.9120n  699.9999m   50.3459m  649.6541m 
 -459.27475m  103.4697n  699.9999m   50.4873m  649.5127m 
 -459.17475m  104.0307n  699.9999m   50.6287m  649.3713m 
 -459.07475m  104.5949n  699.9999m   50.7702m  649.2298m 
 -458.97475m  105.1624n  699.9999m   50.9116m  649.0884m 
 -458.87475m  105.7332n  699.9999m   51.0530m  648.9470m 
 -458.77475m  106.3073n  699.9999m   51.1944m  648.8056m 
 -458.67475m  106.8848n  699.9999m   51.3359m  648.6642m 
 -458.57475m  107.4656n  699.9999m   51.4773m  648.5227m 
 -458.47475m  108.0498n  699.9999m   51.6187m  648.3813m 
 -458.37475m  108.6374n  699.9999m   51.7601m  648.2399m 
 -458.27475m  109.2285n  699.9999m   51.9015m  648.0985m 
 -458.17475m  109.8230n  699.9999m   52.0430m  647.9571m 
 -458.07475m  110.4209n  699.9999m   52.1844m  647.8156m 
 -457.97475m  111.0223n  699.9999m   52.3258m  647.6742m 
 -457.87475m  111.6273n  699.9999m   52.4672m  647.5328m 
 -457.77475m  112.2357n  699.9999m   52.6086m  647.3914m 
 -457.67475m  112.8478n  699.9999m   52.7501m  647.2499m 
 -457.57475m  113.4633n  699.9999m   52.8915m  647.1085m 
 -457.47475m  114.0825n  699.9999m   53.0329m  646.9671m 
 -457.37475m  114.7052n  699.9999m   53.1743m  646.8257m 
 -457.27475m  115.3316n  699.9999m   53.3157m  646.6843m 
 -457.17475m  115.9617n  699.9999m   53.4572m  646.5428m 
 -457.07475m  116.5954n  699.9999m   53.5986m  646.4014m 
 -456.97475m  117.2328n  699.9999m   53.7400m  646.2600m 
 -456.87475m  117.8739n  699.9999m   53.8814m  646.1186m 
 -456.77475m  118.5188n  699.9999m   54.0228m  645.9772m 
 -456.67475m  119.1674n  699.9999m   54.1643m  645.8357m 
 -456.57475m  119.8198n  699.9999m   54.3057m  645.6943m 
 -456.47475m  120.4760n  699.9999m   54.4471m  645.5529m 
 -456.37475m  121.1361n  699.9999m   54.5885m  645.4115m 
 -456.27475m  121.8000n  699.9999m   54.7300m  645.2701m 
 -456.17475m  122.4677n  699.9999m   54.8714m  645.1286m 
 -456.07475m  123.1394n  699.9999m   55.0128m  644.9872m 
 -455.97475m  123.8149n  699.9999m   55.1542m  644.8458m 
 -455.87475m  124.4944n  699.9999m   55.2956m  644.7044m 
 -455.77475m  125.1779n  699.9999m   55.4371m  644.5630m 
 -455.67475m  125.8654n  699.9999m   55.5785m  644.4215m 
 -455.57475m  126.5568n  699.9999m   55.7199m  644.2801m 
 -455.47475m  127.2523n  699.9999m   55.8613m  644.1387m 
 -455.37475m  127.9519n  699.9999m   56.0027m  643.9973m 
 -455.27475m  128.6555n  699.9999m   56.1442m  643.8559m 
 -455.17475m  129.3632n  699.9999m   56.2856m  643.7144m 
 -455.07475m  130.0751n  699.9999m   56.4270m  643.5730m 
 -454.97475m  130.7911n  699.9999m   56.5684m  643.4316m 
 -454.87475m  131.5113n  699.9999m   56.7098m  643.2902m 
 -454.77475m  132.2357n  699.9999m   56.8513m  643.1487m 
 -454.67475m  132.9643n  699.9999m   56.9927m  643.0073m 
 -454.57475m  133.6972n  699.9999m   57.1341m  642.8659m 
 -454.47475m  134.4344n  699.9999m   57.2755m  642.7245m 
 -454.37475m  135.1758n  699.9999m   57.4169m  642.5831m 
 -454.27475m  135.9216n  699.9999m   57.5584m  642.4416m 
 -454.17475m  136.6718n  699.9999m   57.6998m  642.3002m 
 -454.07475m  137.4263n  699.9999m   57.8412m  642.1588m 
 -453.97475m  138.1852n  699.9999m   57.9826m  642.0174m 
 -453.87475m  138.9486n  699.9999m   58.1240m  641.8760m 
 -453.77475m  139.7164n  699.9999m   58.2655m  641.7345m 
 -453.67475m  140.4887n  699.9999m   58.4069m  641.5931m 
 -453.57475m  141.2655n  699.9999m   58.5483m  641.4517m 
 -453.47475m  142.0468n  699.9999m   58.6897m  641.3103m 
 -453.37475m  142.8327n  699.9999m   58.8312m  641.1689m 
 -453.27475m  143.6232n  699.9999m   58.9726m  641.0274m 
 -453.17475m  144.4183n  699.9999m   59.1140m  640.8860m 
 -453.07475m  145.2180n  699.9999m   59.2554m  640.7446m 
 -452.97475m  146.0225n  699.9999m   59.3968m  640.6032m 
 -452.87475m  146.8316n  699.9999m   59.5383m  640.4618m 
 -452.77475m  147.6454n  699.9999m   59.6797m  640.3203m 
 -452.67475m  148.4640n  699.9999m   59.8211m  640.1789m 
 -452.57475m  149.2874n  699.9999m   59.9625m  640.0375m 
 -452.47475m  150.1156n  699.9999m   60.1039m  639.8961m 
 -452.37475m  150.9486n  699.9999m   60.2454m  639.7547m 
 -452.27475m  151.7865n  699.9999m   60.3868m  639.6132m 
 -452.17475m  152.6293n  699.9999m   60.5282m  639.4718m 
 -452.07475m  153.4770n  699.9999m   60.6696m  639.3304m 
 -451.97475m  154.3297n  699.9999m   60.8110m  639.1890m 
 -451.87475m  155.1874n  699.9999m   60.9525m  639.0476m 
 -451.77475m  156.0500n  699.9999m   61.0939m  638.9061m 
 -451.67475m  156.9177n  699.9999m   61.2353m  638.7647m 
 -451.57475m  157.7905n  699.9999m   61.3767m  638.6233m 
 -451.47475m  158.6684n  699.9999m   61.5181m  638.4819m 
 -451.37475m  159.5514n  699.9999m   61.6596m  638.3404m 
 -451.27475m  160.4396n  699.9999m   61.8010m  638.1990m 
 -451.17475m  161.3330n  699.9999m   61.9424m  638.0576m 
 -451.07475m  162.2316n  699.9999m   62.0838m  637.9162m 
 -450.97475m  163.1354n  699.9999m   62.2252m  637.7748m 
 -450.87475m  164.0445n  699.9998m   62.3667m  637.6333m 
 -450.77475m  164.9590n  699.9998m   62.5081m  637.4919m 
 -450.67475m  165.8788n  699.9998m   62.6495m  637.3505m 
 -450.57475m  166.8039n  699.9998m   62.7909m  637.2091m 
 -450.47475m  167.7345n  699.9998m   62.9323m  637.0677m 
 -450.37475m  168.6706n  699.9998m   63.0738m  636.9262m 
 -450.27475m  169.6121n  699.9998m   63.2152m  636.7848m 
 -450.17475m  170.5591n  699.9998m   63.3566m  636.6434m 
 -450.07475m  171.5116n  699.9998m   63.4980m  636.5020m 
 -449.97475m  172.4697n  699.9998m   63.6395m  636.3606m 
 -449.87475m  173.4335n  699.9998m   63.7809m  636.2191m 
 -449.77475m  174.4028n  699.9998m   63.9223m  636.0777m 
 -449.67475m  175.3779n  699.9998m   64.0637m  635.9363m 
 -449.57475m  176.3586n  699.9998m   64.2051m  635.7949m 
 -449.47475m  177.3451n  699.9998m   64.3466m  635.6535m 
 -449.37475m  178.3373n  699.9998m   64.4880m  635.5120m 
 -449.27475m  179.3354n  699.9998m   64.6294m  635.3706m 
 -449.17475m  180.3393n  699.9998m   64.7708m  635.2292m 
 -449.07475m  181.3491n  699.9998m   64.9122m  635.0878m 
 -448.97475m  182.3648n  699.9998m   65.0537m  634.9464m 
 -448.87475m  183.3864n  699.9998m   65.1951m  634.8049m 
 -448.77475m  184.4140n  699.9998m   65.3365m  634.6635m 
 -448.67475m  185.4477n  699.9998m   65.4779m  634.5221m 
 -448.57475m  186.4873n  699.9998m   65.6193m  634.3807m 
 -448.47475m  187.5331n  699.9998m   65.7608m  634.2393m 
 -448.37475m  188.5850n  699.9998m   65.9022m  634.0978m 
 -448.27475m  189.6431n  699.9998m   66.0436m  633.9564m 
 -448.17475m  190.7073n  699.9998m   66.1850m  633.8150m 
 -448.07475m  191.7778n  699.9998m   66.3264m  633.6736m 
 -447.97475m  192.8545n  699.9998m   66.4679m  633.5322m 
 -447.87475m  193.9376n  699.9998m   66.6093m  633.3907m 
 -447.77475m  195.0270n  699.9998m   66.7507m  633.2493m 
 -447.67475m  196.1228n  699.9998m   66.8921m  633.1079m 
 -447.57475m  197.2250n  699.9998m   67.0335m  632.9665m 
 -447.47475m  198.3336n  699.9998m   67.1750m  632.8251m 
 -447.37475m  199.4488n  699.9998m   67.3164m  632.6836m 
 -447.27475m  200.5705n  699.9998m   67.4578m  632.5422m 
 -447.17475m  201.6987n  699.9998m   67.5992m  632.4008m 
 -447.07475m  202.8336n  699.9998m   67.7406m  632.2594m 
 -446.97475m  203.9751n  699.9998m   67.8821m  632.1180m 
 -446.87475m  205.1234n  699.9998m   68.0235m  631.9765m 
 -446.77475m  206.2783n  699.9998m   68.1649m  631.8351m 
 -446.67475m  207.4400n  699.9998m   68.3063m  631.6937m 
 -446.57475m  208.6085n  699.9998m   68.4477m  631.5523m 
 -446.47475m  209.7839n  699.9998m   68.5892m  631.4109m 
 -446.37475m  210.9662n  699.9998m   68.7306m  631.2694m 
 -446.27475m  212.1553n  699.9998m   68.8720m  631.1280m 
 -446.17475m  213.3515n  699.9998m   69.0134m  630.9866m 
 -446.07475m  214.5547n  699.9998m   69.1548m  630.8452m 
 -445.97475m  215.7649n  699.9998m   69.2963m  630.7038m 
 -445.87475m  216.9822n  699.9998m   69.4377m  630.5623m 
 -445.77475m  218.2067n  699.9998m   69.5791m  630.4209m 
 -445.67475m  219.4383n  699.9998m   69.7205m  630.2795m 
 -445.57475m  220.6772n  699.9998m   69.8619m  630.1381m 
 -445.47475m  221.9233n  699.9998m   70.0034m  629.9967m 
 -445.37475m  223.1768n  699.9998m   70.1448m  629.8552m 
 -445.27475m  224.4376n  699.9998m   70.2862m  629.7138m 
 -445.17475m  225.7058n  699.9998m   70.4276m  629.5724m 
 -445.07475m  226.9814n  699.9998m   70.5690m  629.4310m 
 -444.97475m  228.2645n  699.9998m   70.7105m  629.2896m 
 -444.87475m  229.5552n  699.9998m   70.8519m  629.1481m 
 -444.77475m  230.8534n  699.9998m   70.9933m  629.0067m 
 -444.67475m  232.1592n  699.9998m   71.1347m  628.8653m 
 -444.57475m  233.4727n  699.9998m   71.2762m  628.7239m 
 -444.47475m  234.7939n  699.9998m   71.4176m  628.5824m 
 -444.37475m  236.1229n  699.9998m   71.5590m  628.4410m 
 -444.27475m  237.4597n  699.9998m   71.7004m  628.2996m 
 -444.17475m  238.8043n  699.9998m   71.8418m  628.1582m 
 -444.07475m  240.1568n  699.9998m   71.9833m  628.0168m 
 -443.97475m  241.5172n  699.9998m   72.1247m  627.8753m 
 -443.87475m  242.8856n  699.9998m   72.2661m  627.7339m 
 -443.77475m  244.2621n  699.9998m   72.4075m  627.5925m 
 -443.67475m  245.6466n  699.9998m   72.5489m  627.4511m 
 -443.57475m  247.0393n  699.9998m   72.6904m  627.3097m 
 -443.47475m  248.4402n  699.9998m   72.8318m  627.1682m 
 -443.37475m  249.8492n  699.9998m   72.9732m  627.0268m 
 -443.27475m  251.2666n  699.9998m   73.1146m  626.8854m 
 -443.17475m  252.6923n  699.9998m   73.2560m  626.7440m 
 -443.07475m  254.1263n  699.9998m   73.3975m  626.6026m 
 -442.97475m  255.5688n  699.9998m   73.5389m  626.4612m 
 -442.87475m  257.0197n  699.9998m   73.6803m  626.3197m 
 -442.77475m  258.4792n  699.9998m   73.8217m  626.1783m 
 -442.67475m  259.9472n  699.9998m   73.9631m  626.0369m 
 -442.57475m  261.4239n  699.9998m   74.1046m  625.8955m 
 -442.47475m  262.9093n  699.9998m   74.2460m  625.7541m 
 -442.37475m  264.4033n  699.9998m   74.3874m  625.6126m 
 -442.27475m  265.9062n  699.9998m   74.5288m  625.4712m 
 -442.17475m  267.4179n  699.9998m   74.6702m  625.3298m 
 -442.07475m  268.9384n  699.9998m   74.8117m  625.1884m 
 -441.97475m  270.4679n  699.9998m   74.9531m  625.0470m 
 -441.87475m  272.0064n  699.9998m   75.0945m  624.9055m 
 -441.77475m  273.5540n  699.9998m   75.2359m  624.7641m 
 -441.67475m  275.1106n  699.9997m   75.3773m  624.6227m 
 -441.57475m  276.6764n  699.9997m   75.5188m  624.4813m 
 -441.47475m  278.2514n  699.9997m   75.6602m  624.3399m 
 -441.37475m  279.8356n  699.9997m   75.8016m  624.1984m 
 -441.27475m  281.4292n  699.9997m   75.9430m  624.0570m 
 -441.17475m  283.0322n  699.9997m   76.0844m  623.9156m 
 -441.07475m  284.6445n  699.9997m   76.2259m  623.7742m 
 -440.97475m  286.2664n  699.9997m   76.3673m  623.6328m 
 -440.87475m  287.8978n  699.9997m   76.5087m  623.4913m 
 -440.77475m  289.5387n  699.9997m   76.6501m  623.3499m 
 -440.67475m  291.1894n  699.9997m   76.7915m  623.2085m 
 -440.57475m  292.8497n  699.9997m   76.9330m  623.0671m 
 -440.47475m  294.5198n  699.9997m   77.0744m  622.9257m 
 -440.37475m  296.1998n  699.9997m   77.2158m  622.7842m 
 -440.27475m  297.8896n  699.9997m   77.3572m  622.6428m 
 -440.17475m  299.5894n  699.9997m   77.4986m  622.5014m 
 -440.07475m  301.2991n  699.9997m   77.6401m  622.3600m 
 -439.97475m  303.0189n  699.9997m   77.7815m  622.2186m 
 -439.87475m  304.7489n  699.9997m   77.9229m  622.0771m 
 -439.77475m  306.4890n  699.9997m   78.0643m  621.9357m 
 -439.67475m  308.2394n  699.9997m   78.2057m  621.7943m 
 -439.57475m  310.0001n  699.9997m   78.3471m  621.6529m 
 -439.47475m  311.7711n  699.9997m   78.4886m  621.5115m 
 -439.37475m  313.5526n  699.9997m   78.6300m  621.3700m 
 -439.27475m  315.3445n  699.9997m   78.7714m  621.2286m 
 -439.17475m  317.1470n  699.9997m   78.9128m  621.0872m 
 -439.07475m  318.9602n  699.9997m   79.0542m  620.9458m 
 -438.97475m  320.7839n  699.9997m   79.1957m  620.8044m 
 -438.87475m  322.6185n  699.9997m   79.3371m  620.6629m 
 -438.77475m  324.4638n  699.9997m   79.4785m  620.5215m 
 -438.67475m  326.3200n  699.9997m   79.6199m  620.3801m 
 -438.57475m  328.1872n  699.9997m   79.7613m  620.2387m 
 -438.47475m  330.0653n  699.9997m   79.9028m  620.0973m 
 -438.37475m  331.9545n  699.9997m   80.0442m  619.9558m 
 -438.27475m  333.8548n  699.9997m   80.1856m  619.8144m 
 -438.17475m  335.7663n  699.9997m   80.3270m  619.6730m 
 -438.07475m  337.6891n  699.9997m   80.4684m  619.5316m 
 -437.97475m  339.6232n  699.9997m   80.6099m  619.3902m 
 -437.87475m  341.5687n  699.9997m   80.7513m  619.2487m 
 -437.77475m  343.5257n  699.9997m   80.8927m  619.1073m 
 -437.67475m  345.4942n  699.9997m   81.0341m  618.9659m 
 -437.57475m  347.4743n  699.9997m   81.1755m  618.8245m 
 -437.47475m  349.4661n  699.9997m   81.3170m  618.6831m 
 -437.37475m  351.4696n  699.9997m   81.4584m  618.5417m 
 -437.27475m  353.4850n  699.9997m   81.5998m  618.4002m 
 -437.17475m  355.5122n  699.9997m   81.7412m  618.2588m 
 -437.07475m  357.5513n  699.9997m   81.8826m  618.1174m 
 -436.97475m  359.6025n  699.9997m   82.0241m  617.9760m 
 -436.87475m  361.6658n  699.9997m   82.1655m  617.8346m 
 -436.77475m  363.7412n  699.9997m   82.3069m  617.6931m 
 -436.67475m  365.8289n  699.9997m   82.4483m  617.5517m 
 -436.57475m  367.9289n  699.9997m   82.5897m  617.4103m 
 -436.47475m  370.0413n  699.9997m   82.7312m  617.2689m 
 -436.37475m  372.1661n  699.9997m   82.8726m  617.1275m 
 -436.27475m  374.3035n  699.9997m   83.0140m  616.9860m 
 -436.17475m  376.4535n  699.9997m   83.1554m  616.8446m 
 -436.07475m  378.6162n  699.9997m   83.2968m  616.7032m 
 -435.97475m  380.7916n  699.9997m   83.4383m  616.5618m 
 -435.87475m  382.9798n  699.9997m   83.5797m  616.4204m 
 -435.77475m  385.1810n  699.9997m   83.7211m  616.2789m 
 -435.67475m  387.3952n  699.9996m   83.8625m  616.1375m 
 -435.57475m  389.6224n  699.9996m   84.0039m  615.9961m 
 -435.47475m  391.8628n  699.9996m   84.1454m  615.8547m 
 -435.37475m  394.1164n  699.9996m   84.2868m  615.7133m 
 -435.27475m  396.3832n  699.9996m   84.4282m  615.5718m 
 -435.17475m  398.6635n  699.9996m   84.5696m  615.4304m 
 -435.07475m  400.9572n  699.9996m   84.7110m  615.2890m 
 -434.97475m  403.2645n  699.9996m   84.8524m  615.1476m 
 -434.87475m  405.5854n  699.9996m   84.9939m  615.0062m 
 -434.77475m  407.9200n  699.9996m   85.1353m  614.8648m 
 -434.67475m  410.2684n  699.9996m   85.2767m  614.7233m 
 -434.57475m  412.6307n  699.9996m   85.4181m  614.5819m 
 -434.47475m  415.0069n  699.9996m   85.5595m  614.4405m 
 -434.37475m  417.3971n  699.9996m   85.7010m  614.2991m 
 -434.27475m  419.8014n  699.9996m   85.8424m  614.1577m 
 -434.17475m  422.2200n  699.9996m   85.9838m  614.0162m 
 -434.07475m  424.6528n  699.9996m   86.1252m  613.8748m 
 -433.97475m  427.1000n  699.9996m   86.2666m  613.7334m 
 -433.87475m  429.5617n  699.9996m   86.4081m  613.5920m 
 -433.77475m  432.0379n  699.9996m   86.5495m  613.4506m 
 -433.67475m  434.5288n  699.9996m   86.6909m  613.3091m 
 -433.57475m  437.0343n  699.9996m   86.8323m  613.1677m 
 -433.47475m  439.5547n  699.9996m   86.9737m  613.0263m 
 -433.37475m  442.0899n  699.9996m   87.1152m  612.8849m 
 -433.27475m  444.6402n  699.9996m   87.2566m  612.7435m 
 -433.17475m  447.2055n  699.9996m   87.3980m  612.6020m 
 -433.07475m  449.7860n  699.9996m   87.5394m  612.4606m 
 -432.97475m  452.3817n  699.9996m   87.6808m  612.3192m 
 -432.87475m  454.9928n  699.9996m   87.8223m  612.1778m 
 -432.77475m  457.6193n  699.9996m   87.9637m  612.0364m 
 -432.67475m  460.2614n  699.9996m   88.1051m  611.8950m 
 -432.57475m  462.9190n  699.9996m   88.2465m  611.7535m 
 -432.47475m  465.5924n  699.9996m   88.3879m  611.6121m 
 -432.37475m  468.2816n  699.9996m   88.5293m  611.4707m 
 -432.27475m  470.9867n  699.9996m   88.6708m  611.3293m 
 -432.17475m  473.7078n  699.9996m   88.8122m  611.1879m 
 -432.07475m  476.4450n  699.9996m   88.9536m  611.0464m 
 -431.97475m  479.1984n  699.9996m   89.0950m  610.9050m 
 -431.87475m  481.9680n  699.9996m   89.2364m  610.7636m 
 -431.77475m  484.7541n  699.9996m   89.3779m  610.6222m 
 -431.67475m  487.5566n  699.9996m   89.5193m  610.4808m 
 -431.57475m  490.3757n  699.9996m   89.6607m  610.3394m 
 -431.47475m  493.2115n  699.9996m   89.8021m  610.1979m 
 -431.37475m  496.0641n  699.9996m   89.9435m  610.0565m 
 -431.27475m  498.9336n  699.9996m   90.0850m  609.9151m 
 -431.17475m  501.8200n  699.9995m   90.2264m  609.7737m 
 -431.07475m  504.7235n  699.9995m   90.3678m  609.6323m 
 -430.97475m  507.6443n  699.9995m   90.5092m  609.4908m 
 -430.87475m  510.5823n  699.9995m   90.6506m  609.3494m 
 -430.77475m  513.5377n  699.9995m   90.7920m  609.2080m 
 -430.67475m  516.5106n  699.9995m   90.9335m  609.0666m 
 -430.57475m  519.5011n  699.9995m   91.0749m  608.9252m 
 -430.47475m  522.5093n  699.9995m   91.2163m  608.7837m 
 -430.37475m  525.5353n  699.9995m   91.3577m  608.6423m 
 -430.27475m  528.5792n  699.9995m   91.4991m  608.5009m 
 -430.17475m  531.6412n  699.9995m   91.6406m  608.3595m 
 -430.07475m  534.7213n  699.9995m   91.7820m  608.2181m 
 -429.97475m  537.8196n  699.9995m   91.9234m  608.0767m 
 -429.87475m  540.9363n  699.9995m   92.0648m  607.9352m 
 -429.77475m  544.0715n  699.9995m   92.2062m  607.7938m 
 -429.67475m  547.2252n  699.9995m   92.3477m  607.6524m 
 -429.57475m  550.3976n  699.9995m   92.4891m  607.5110m 
 -429.47475m  553.5888n  699.9995m   92.6305m  607.3696m 
 -429.37475m  556.7990n  699.9995m   92.7719m  607.2281m 
 -429.27475m  560.0281n  699.9995m   92.9133m  607.0867m 
 -429.17475m  563.2764n  699.9995m   93.0547m  606.9453m 
 -429.07475m  566.5439n  699.9995m   93.1962m  606.8039m 
 -428.97475m  569.8309n  699.9995m   93.3376m  606.6625m 
 -428.87475m  573.1372n  699.9995m   93.4790m  606.5211m 
 -428.77475m  576.4632n  699.9995m   93.6204m  606.3796m 
 -428.67475m  579.8089n  699.9995m   93.7618m  606.2382m 
 -428.57475m  583.1745n  699.9995m   93.9033m  606.0968m 
 -428.47475m  586.5600n  699.9995m   94.0447m  605.9554m 
 -428.37475m  589.9656n  699.9995m   94.1861m  605.8140m 
 -428.27475m  593.3913n  699.9995m   94.3275m  605.6725m 
 -428.17475m  596.8374n  699.9995m   94.4689m  605.5311m 
 -428.07475m  600.3040n  699.9995m   94.6103m  605.3897m 
 -427.97475m  603.7910n  699.9995m   94.7518m  605.2483m 
 -427.87475m  607.2988n  699.9995m   94.8932m  605.1069m 
 -427.77475m  610.8274n  699.9995m   95.0346m  604.9655m 
 -427.67475m  614.3769n  699.9995m   95.1760m  604.8240m 
 -427.57475m  617.9475n  699.9994m   95.3174m  604.6826m 
 -427.47475m  621.5393n  699.9994m   95.4589m  604.5412m 
 -427.37475m  625.1523n  699.9994m   95.6003m  604.3998m 
 -427.27475m  628.7868n  699.9994m   95.7417m  604.2584m 
 -427.17475m  632.4429n  699.9994m   95.8831m  604.1170m 
 -427.07475m  636.1207n  699.9994m   96.0245m  603.9755m 
 -426.97475m  639.8203n  699.9994m   96.1660m  603.8341m 
 -426.87475m  643.5419n  699.9994m   96.3074m  603.6927m 
 -426.77475m  647.2856n  699.9994m   96.4488m  603.5513m 
 -426.67475m  651.0514n  699.9994m   96.5902m  603.4099m 
 -426.57475m  654.8397n  699.9994m   96.7316m  603.2684m 
 -426.47475m  658.6504n  699.9994m   96.8730m  603.1270m 
 -426.37475m  662.4838n  699.9994m   97.0145m  602.9856m 
 -426.27475m  666.3399n  699.9994m   97.1559m  602.8442m 
 -426.17475m  670.2190n  699.9994m   97.2973m  602.7028m 
 -426.07475m  674.1211n  699.9994m   97.4387m  602.5614m 
 -425.97475m  678.0463n  699.9994m   97.5801m  602.4199m 
 -425.87475m  681.9949n  699.9994m   97.7215m  602.2785m 
 -425.77475m  685.9669n  699.9994m   97.8630m  602.1371m 
 -425.67475m  689.9625n  699.9994m   98.0044m  601.9957m 
 -425.57475m  693.9819n  699.9994m   98.1458m  601.8543m 
 -425.47475m  698.0251n  699.9994m   98.2872m  601.7129m 
 -425.37475m  702.0924n  699.9994m   98.4286m  601.5714m 
 -425.27475m  706.1838n  699.9994m   98.5701m  601.4300m 
 -425.17475m  710.2996n  699.9994m   98.7115m  601.2886m 
 -425.07475m  714.4398n  699.9994m   98.8529m  601.1472m 
 -424.97475m  718.6046n  699.9994m   98.9943m  601.0058m 
 -424.87475m  722.7942n  699.9994m   99.1357m  600.8644m 
 -424.77475m  727.0087n  699.9994m   99.2771m  600.7229m 
 -424.67475m  731.2482n  699.9993m   99.4186m  600.5815m 
 -424.57475m  735.5130n  699.9993m   99.5600m  600.4401m 
 -424.47475m  739.8031n  699.9993m   99.7014m  600.2987m 
 -424.37475m  744.1187n  699.9993m   99.8428m  600.1573m 
 -424.27475m  748.4600n  699.9993m   99.9842m  600.0158m 
 -424.17475m  752.8271n  699.9993m  100.1256m  599.8744m 
 -424.07475m  757.2202n  699.9993m  100.2671m  599.7330m 
 -423.97475m  761.6394n  699.9993m  100.4085m  599.5916m 
 -423.87475m  766.0849n  699.9993m  100.5499m  599.4502m 
 -423.77475m  770.5568n  699.9993m  100.6913m  599.3088m 
 -423.67475m  775.0554n  699.9993m  100.8327m  599.1673m 
 -423.57475m  779.5807n  699.9993m  100.9742m  599.0259m 
 -423.47475m  784.1329n  699.9993m  101.1156m  598.8845m 
 -423.37475m  788.7123n  699.9993m  101.2570m  598.7431m 
 -423.27475m  793.3188n  699.9993m  101.3984m  598.6017m 
 -423.17475m  797.9528n  699.9993m  101.5398m  598.4603m 
 -423.07475m  802.6144n  699.9993m  101.6812m  598.3188m 
 -422.97475m  807.3038n  699.9993m  101.8227m  598.1774m 
 -422.87475m  812.0210n  699.9993m  101.9641m  598.0360m 
 -422.77475m  816.7663n  699.9993m  102.1055m  597.8946m 
 -422.67475m  821.5399n  699.9993m  102.2469m  597.7532m 
 -422.57475m  826.3419n  699.9993m  102.3883m  597.6118m 
 -422.47475m  831.1725n  699.9993m  102.5297m  597.4703m 
 -422.37475m  836.0318n  699.9993m  102.6712m  597.3289m 
 -422.27475m  840.9201n  699.9993m  102.8126m  597.1875m 
 -422.17475m  845.8376n  699.9992m  102.9540m  597.0461m 
 -422.07475m  850.7843n  699.9992m  103.0954m  596.9047m 
 -421.97475m  855.7604n  699.9992m  103.2368m  596.7633m 
 -421.87475m  860.7662n  699.9992m  103.3782m  596.6218m 
 -421.77475m  865.8019n  699.9992m  103.5197m  596.4804m 
 -421.67475m  870.8675n  699.9992m  103.6611m  596.3390m 
 -421.57475m  875.9633n  699.9992m  103.8025m  596.1976m 
 -421.47475m  881.0895n  699.9992m  103.9439m  596.0562m 
 -421.37475m  886.2463n  699.9992m  104.0853m  595.9148m 
 -421.27475m  891.4337n  699.9992m  104.2267m  595.7734m 
 -421.17475m  896.6521n  699.9992m  104.3682m  595.6319m 
 -421.07475m  901.9016n  699.9992m  104.5096m  595.4905m 
 -420.97475m  907.1824n  699.9992m  104.6510m  595.3491m 
 -420.87475m  912.4947n  699.9992m  104.7924m  595.2077m 
 -420.77475m  917.8386n  699.9992m  104.9338m  595.0663m 
 -420.67475m  923.2144n  699.9992m  105.0752m  594.9249m 
 -420.57475m  928.6222n  699.9992m  105.2167m  594.7834m 
 -420.47475m  934.0624n  699.9992m  105.3581m  594.6420m 
 -420.37475m  939.5349n  699.9992m  105.4995m  594.5006m 
 -420.27475m  945.0401n  699.9992m  105.6409m  594.3592m 
 -420.17475m  950.5781n  699.9992m  105.7823m  594.2178m 
 -420.07475m  956.1492n  699.9992m  105.9237m  594.0764m 
 -419.97475m  961.7535n  699.9991m  106.0652m  593.9349m 
 -419.87475m  967.3912n  699.9991m  106.2066m  593.7935m 
 -419.77475m  973.0625n  699.9991m  106.3480m  593.6521m 
 -419.67475m  978.7677n  699.9991m  106.4894m  593.5107m 
 -419.57475m  984.5070n  699.9991m  106.6308m  593.3693m 
 -419.47475m  990.2805n  699.9991m  106.7722m  593.2279m 
 -419.37475m  996.0884n  699.9991m  106.9137m  593.0865m 
 -419.27475m    1.0019u  699.9991m  107.0551m  592.9450m 
 -419.17475m    1.0078u  699.9991m  107.1965m  592.8036m 
 -419.07475m    1.0137u  699.9991m  107.3379m  592.6622m 
 -418.97475m    1.0197u  699.9991m  107.4793m  592.5208m 
 -418.87475m    1.0257u  699.9991m  107.6207m  592.3794m 
 -418.77475m    1.0317u  699.9991m  107.7622m  592.2380m 
 -418.67475m    1.0377u  699.9991m  107.9036m  592.0965m 
 -418.57475m    1.0438u  699.9991m  108.0450m  591.9551m 
 -418.47475m    1.0499u  699.9991m  108.1864m  591.8137m 
 -418.37475m    1.0561u  699.9991m  108.3278m  591.6723m 
 -418.27475m    1.0623u  699.9991m  108.4692m  591.5309m 
 -418.17475m    1.0685u  699.9991m  108.6107m  591.3895m 
 -418.07475m    1.0748u  699.9991m  108.7521m  591.2481m 
 -417.97475m    1.0811u  699.9990m  108.8935m  591.1066m 
 -417.87475m    1.0875u  699.9990m  109.0349m  590.9652m 
 -417.77475m    1.0939u  699.9990m  109.1763m  590.8238m 
 -417.67475m    1.1003u  699.9990m  109.3177m  590.6824m 
 -417.57475m    1.1068u  699.9990m  109.4592m  590.5410m 
 -417.47475m    1.1133u  699.9990m  109.6006m  590.3996m 
 -417.37475m    1.1198u  699.9990m  109.7420m  590.2581m 
 -417.27475m    1.1264u  699.9990m  109.8834m  590.1167m 
 -417.17475m    1.1330u  699.9990m  110.0248m  589.9753m 
 -417.07475m    1.1397u  699.9990m  110.1662m  589.8339m 
 -416.97475m    1.1464u  699.9990m  110.3076m  589.6925m 
 -416.87475m    1.1531u  699.9990m  110.4491m  589.5511m 
 -416.77475m    1.1599u  699.9990m  110.5905m  589.4097m 
 -416.67475m    1.1667u  699.9990m  110.7319m  589.2682m 
 -416.57475m    1.1736u  699.9990m  110.8733m  589.1268m 
 -416.47475m    1.1805u  699.9990m  111.0147m  588.9854m 
 -416.37475m    1.1874u  699.9990m  111.1561m  588.8440m 
 -416.27475m    1.1944u  699.9989m  111.2976m  588.7026m 
 -416.17475m    1.2014u  699.9989m  111.4390m  588.5612m 
 -416.07475m    1.2085u  699.9989m  111.5804m  588.4198m 
 -415.97475m    1.2156u  699.9989m  111.7218m  588.2783m 
 -415.87475m    1.2228u  699.9989m  111.8632m  588.1369m 
 -415.77475m    1.2300u  699.9989m  112.0046m  587.9955m 
 -415.67475m    1.2372u  699.9989m  112.1460m  587.8541m 
 -415.57475m    1.2445u  699.9989m  112.2875m  587.7127m 
 -415.47475m    1.2518u  699.9989m  112.4289m  587.5713m 
 -415.37475m    1.2592u  699.9989m  112.5703m  587.4299m 
 -415.27475m    1.2666u  699.9989m  112.7117m  587.2884m 
 -415.17475m    1.2741u  699.9989m  112.8531m  587.1470m 
 -415.07475m    1.2816u  699.9989m  112.9945m  587.0056m 
 -414.97475m    1.2891u  699.9989m  113.1360m  586.8642m 
 -414.87475m    1.2967u  699.9989m  113.2774m  586.7228m 
 -414.77475m    1.3044u  699.9989m  113.4188m  586.5814m 
 -414.67475m    1.3121u  699.9988m  113.5602m  586.4400m 
 -414.57475m    1.3198u  699.9988m  113.7016m  586.2985m 
 -414.47475m    1.3276u  699.9988m  113.8430m  586.1571m 
 -414.37475m    1.3354u  699.9988m  113.9844m  586.0157m 
 -414.27475m    1.3433u  699.9988m  114.1259m  585.8743m 
 -414.17475m    1.3512u  699.9988m  114.2673m  585.7329m 
 -414.07475m    1.3591u  699.9988m  114.4087m  585.5915m 
 -413.97475m    1.3672u  699.9988m  114.5501m  585.4501m 
 -413.87475m    1.3752u  699.9988m  114.6915m  585.3087m 
 -413.77475m    1.3833u  699.9988m  114.8329m  585.1672m 
 -413.67475m    1.3915u  699.9988m  114.9743m  585.0258m 
 -413.57475m    1.3997u  699.9988m  115.1158m  584.8844m 
 -413.47475m    1.4080u  699.9988m  115.2572m  584.7430m 
 -413.37475m    1.4163u  699.9988m  115.3986m  584.6016m 
 -413.27475m    1.4246u  699.9988m  115.5400m  584.4602m 
 -413.17475m    1.4330u  699.9987m  115.6814m  584.3188m 
 -413.07475m    1.4415u  699.9987m  115.8228m  584.1774m 
 -412.97475m    1.4500u  699.9987m  115.9642m  584.0359m 
 -412.87475m    1.4585u  699.9987m  116.1057m  583.8945m 
 -412.77475m    1.4672u  699.9987m  116.2471m  583.7531m 
 -412.67475m    1.4758u  699.9987m  116.3885m  583.6117m 
 -412.57475m    1.4845u  699.9987m  116.5299m  583.4703m 
 -412.47475m    1.4933u  699.9987m  116.6713m  583.3289m 
 -412.37475m    1.5021u  699.9987m  116.8127m  583.1875m 
 -412.27475m    1.5110u  699.9987m  116.9541m  583.0460m 
 -412.17475m    1.5199u  699.9987m  117.0956m  582.9046m 
 -412.07475m    1.5289u  699.9987m  117.2370m  582.7632m 
 -411.97475m    1.5379u  699.9987m  117.3784m  582.6218m 
 -411.87475m    1.5470u  699.9986m  117.5198m  582.4804m 
 -411.77475m    1.5562u  699.9986m  117.6612m  582.3390m 
 -411.67475m    1.5653u  699.9986m  117.8026m  582.1976m 
 -411.57475m    1.5746u  699.9986m  117.9440m  582.0562m 
 -411.47475m    1.5839u  699.9986m  118.0854m  581.9148m 
 -411.37475m    1.5933u  699.9986m  118.2269m  581.7733m 
 -411.27475m    1.6027u  699.9986m  118.3683m  581.6319m 
 -411.17475m    1.6122u  699.9986m  118.5097m  581.4905m 
 -411.07475m    1.6217u  699.9986m  118.6511m  581.3491m 
 -410.97475m    1.6313u  699.9986m  118.7925m  581.2077m 
 -410.87475m    1.6409u  699.9986m  118.9339m  581.0663m 
 -410.77475m    1.6506u  699.9986m  119.0753m  580.9249m 
 -410.67475m    1.6604u  699.9985m  119.2168m  580.7835m 
 -410.57475m    1.6702u  699.9985m  119.3582m  580.6420m 
 -410.47475m    1.6801u  699.9985m  119.4996m  580.5006m 
 -410.37475m    1.6900u  699.9985m  119.6410m  580.3592m 
 -410.27475m    1.7000u  699.9985m  119.7824m  580.2178m 
 -410.17475m    1.7101u  699.9985m  119.9238m  580.0764m 
 -410.07475m    1.7202u  699.9985m  120.0652m  579.9350m 
 -409.97475m    1.7304u  699.9985m  120.2066m  579.7936m 
 -409.87475m    1.7406u  699.9985m  120.3481m  579.6522m 
 -409.77475m    1.7510u  699.9985m  120.4895m  579.5108m 
 -409.67475m    1.7613u  699.9985m  120.6309m  579.3693m 
 -409.57475m    1.7717u  699.9985m  120.7723m  579.2279m 
 -409.47475m    1.7822u  699.9984m  120.9137m  579.0865m 
 -409.37475m    1.7928u  699.9984m  121.0551m  578.9451m 
 -409.27475m    1.8034u  699.9984m  121.1965m  578.8037m 
 -409.17475m    1.8141u  699.9984m  121.3379m  578.6623m 
 -409.07475m    1.8248u  699.9984m  121.4794m  578.5209m 
 -408.97475m    1.8357u  699.9984m  121.6208m  578.3795m 
 -408.87475m    1.8465u  699.9984m  121.7622m  578.2381m 
 -408.77475m    1.8575u  699.9984m  121.9036m  578.0966m 
 -408.67475m    1.8685u  699.9984m  122.0450m  577.9552m 
 -408.57475m    1.8795u  699.9984m  122.1864m  577.8138m 
 -408.47475m    1.8907u  699.9984m  122.3278m  577.6724m 
 -408.37475m    1.9019u  699.9983m  122.4692m  577.5310m 
 -408.27475m    1.9132u  699.9983m  122.6107m  577.3896m 
 -408.17475m    1.9245u  699.9983m  122.7521m  577.2482m 
 -408.07475m    1.9359u  699.9983m  122.8935m  577.1068m 
 -407.97475m    1.9474u  699.9983m  123.0349m  576.9654m 
 -407.87475m    1.9589u  699.9983m  123.1763m  576.8240m 
 -407.77475m    1.9706u  699.9983m  123.3177m  576.6825m 
 -407.67475m    1.9823u  699.9983m  123.4591m  576.5411m 
 -407.57475m    1.9940u  699.9983m  123.6005m  576.3997m 
 -407.47475m    2.0058u  699.9983m  123.7419m  576.2583m 
 -407.37475m    2.0177u  699.9982m  123.8834m  576.1169m 
 -407.27475m    2.0297u  699.9982m  124.0248m  575.9755m 
 -407.17475m    2.0418u  699.9982m  124.1662m  575.8341m 
 -407.07475m    2.0539u  699.9982m  124.3076m  575.6927m 
 -406.97475m    2.0661u  699.9982m  124.4490m  575.5513m 
 -406.87475m    2.0783u  699.9982m  124.5904m  575.4099m 
 -406.77475m    2.0907u  699.9982m  124.7318m  575.2685m 
 -406.67475m    2.1031u  699.9982m  124.8732m  575.1270m 
 -406.57475m    2.1156u  699.9982m  125.0146m  574.9856m 
 -406.47475m    2.1281u  699.9982m  125.1561m  574.8442m 
 -406.37475m    2.1408u  699.9981m  125.2975m  574.7028m 
 -406.27475m    2.1535u  699.9981m  125.4389m  574.5614m 
 -406.17475m    2.1663u  699.9981m  125.5803m  574.4200m 
 -406.07475m    2.1791u  699.9981m  125.7217m  574.2786m 
 -405.97475m    2.1921u  699.9981m  125.8631m  574.1372m 
 -405.87475m    2.2051u  699.9981m  126.0045m  573.9958m 
 -405.77475m    2.2182u  699.9981m  126.1459m  573.8544m 
 -405.67475m    2.2314u  699.9981m  126.2873m  573.7130m 
 -405.57475m    2.2446u  699.9981m  126.4287m  573.5716m 
 -405.47475m    2.2580u  699.9980m  126.5702m  573.4301m 
 -405.37475m    2.2714u  699.9980m  126.7116m  573.2887m 
 -405.27475m    2.2849u  699.9980m  126.8530m  573.1473m 
 -405.17475m    2.2985u  699.9980m  126.9944m  573.0059m 
 -405.07475m    2.3121u  699.9980m  127.1358m  572.8645m 
 -404.97475m    2.3259u  699.9980m  127.2772m  572.7231m 
 -404.87475m    2.3397u  699.9980m  127.4186m  572.5817m 
 -404.77475m    2.3536u  699.9980m  127.5600m  572.4403m 
 -404.67475m    2.3676u  699.9980m  127.7014m  572.2989m 
 -404.57475m    2.3817u  699.9979m  127.8428m  572.1575m 
 -404.47475m    2.3959u  699.9979m  127.9843m  572.0161m 
 -404.37475m    2.4101u  699.9979m  128.1257m  571.8747m 
 -404.27475m    2.4245u  699.9979m  128.2671m  571.7333m 
 -404.17475m    2.4389u  699.9979m  128.4085m  571.5918m 
 -404.07475m    2.4534u  699.9979m  128.5499m  571.4504m 
 -403.97475m    2.4680u  699.9979m  128.6913m  571.3090m 
 -403.87475m    2.4827u  699.9979m  128.8327m  571.1676m 
 -403.77475m    2.4975u  699.9978m  128.9741m  571.0262m 
 -403.67475m    2.5123u  699.9978m  129.1155m  570.8848m 
 -403.57475m    2.5273u  699.9978m  129.2569m  570.7434m 
 -403.47475m    2.5423u  699.9978m  129.3983m  570.6020m 
 -403.37475m    2.5575u  699.9978m  129.5398m  570.4606m 
 -403.27475m    2.5727u  699.9978m  129.6812m  570.3192m 
 -403.17475m    2.5880u  699.9978m  129.8226m  570.1778m 
 -403.07475m    2.6035u  699.9978m  129.9640m  570.0364m 
 -402.97475m    2.6190u  699.9977m  130.1054m  569.8950m 
 -402.87475m    2.6346u  699.9977m  130.2468m  569.7536m 
 -402.77475m    2.6503u  699.9977m  130.3882m  569.6122m 
 -402.67475m    2.6660u  699.9977m  130.5296m  569.4708m 
 -402.57475m    2.6819u  699.9977m  130.6710m  569.3293m 
 -402.47475m    2.6979u  699.9977m  130.8124m  569.1879m 
 -402.37475m    2.7140u  699.9977m  130.9538m  569.0465m 
 -402.27475m    2.7302u  699.9976m  131.0952m  568.9051m 
 -402.17475m    2.7464u  699.9976m  131.2367m  568.7637m 
 -402.07475m    2.7628u  699.9976m  131.3781m  568.6223m 
 -401.97475m    2.7793u  699.9976m  131.5195m  568.4809m 
 -401.87475m    2.7958u  699.9976m  131.6609m  568.3395m 
 -401.77475m    2.8125u  699.9976m  131.8023m  568.1981m 
 -401.67475m    2.8293u  699.9976m  131.9437m  568.0567m 
 -401.57475m    2.8462u  699.9975m  132.0851m  567.9153m 
 -401.47475m    2.8631u  699.9975m  132.2265m  567.7739m 
 -401.37475m    2.8802u  699.9975m  132.3679m  567.6325m 
 -401.27475m    2.8974u  699.9975m  132.5093m  567.4911m 
 -401.17475m    2.9147u  699.9975m  132.6507m  567.3497m 
 -401.07475m    2.9321u  699.9975m  132.7921m  567.2083m 
 -400.97475m    2.9496u  699.9975m  132.9335m  567.0669m 
 -400.87475m    2.9672u  699.9974m  133.0749m  566.9255m 
 -400.77475m    2.9849u  699.9974m  133.2164m  566.7841m 
 -400.67475m    3.0027u  699.9974m  133.3578m  566.6427m 
 -400.57475m    3.0206u  699.9974m  133.4992m  566.5013m 
 -400.47475m    3.0386u  699.9974m  133.6406m  566.3599m 
 -400.37475m    3.0568u  699.9974m  133.7820m  566.2185m 
 -400.27475m    3.0750u  699.9974m  133.9234m  566.0771m 
 -400.17475m    3.0934u  699.9973m  134.0648m  565.9356m 
 -400.07475m    3.1119u  699.9973m  134.2062m  565.7942m 
 -399.97475m    3.1304u  699.9973m  134.3476m  565.6528m 
 -399.87475m    3.1491u  699.9973m  134.4890m  565.5114m 
 -399.77475m    3.1680u  699.9973m  134.6304m  565.3700m 
 -399.67475m    3.1869u  699.9973m  134.7718m  565.2286m 
 -399.57475m    3.2059u  699.9972m  134.9132m  565.0872m 
 -399.47475m    3.2251u  699.9972m  135.0546m  564.9458m 
 -399.37475m    3.2443u  699.9972m  135.1960m  564.8044m 
 -399.27475m    3.2637u  699.9972m  135.3374m  564.6630m 
 -399.17475m    3.2832u  699.9972m  135.4788m  564.5216m 
 -399.07475m    3.3029u  699.9972m  135.6202m  564.3802m 
 -398.97475m    3.3226u  699.9972m  135.7617m  564.2388m 
 -398.87475m    3.3425u  699.9971m  135.9031m  564.0974m 
 -398.77475m    3.3624u  699.9971m  136.0445m  563.9560m 
 -398.67475m    3.3825u  699.9971m  136.1859m  563.8146m 
 -398.57475m    3.4028u  699.9971m  136.3273m  563.6732m 
 -398.47475m    3.4231u  699.9971m  136.4687m  563.5318m 
 -398.37475m    3.4436u  699.9970m  136.6101m  563.3904m 
 -398.27475m    3.4642u  699.9970m  136.7515m  563.2490m 
 -398.17475m    3.4849u  699.9970m  136.8929m  563.1076m 
 -398.07475m    3.5057u  699.9970m  137.0343m  562.9662m 
 -397.97475m    3.5267u  699.9970m  137.1757m  562.8248m 
 -397.87475m    3.5478u  699.9970m  137.3171m  562.6834m 
 -397.77475m    3.5690u  699.9969m  137.4585m  562.5420m 
 -397.67475m    3.5904u  699.9969m  137.5999m  562.4006m 
 -397.57475m    3.6119u  699.9969m  137.7413m  562.2592m 
 -397.47475m    3.6335u  699.9969m  137.8827m  562.1178m 
 -397.37475m    3.6553u  699.9969m  138.0241m  561.9764m 
 -397.27475m    3.6771u  699.9969m  138.1655m  561.8350m 
 -397.17475m    3.6992u  699.9968m  138.3069m  561.6936m 
 -397.07475m    3.7213u  699.9968m  138.4483m  561.5522m 
 -396.97475m    3.7436u  699.9968m  138.5897m  561.4108m 
 -396.87475m    3.7660u  699.9968m  138.7311m  561.2694m 
 -396.77475m    3.7886u  699.9968m  138.8725m  561.1280m 
 -396.67475m    3.8112u  699.9967m  139.0139m  560.9866m 
 -396.57475m    3.8341u  699.9967m  139.1553m  560.8452m 
 -396.47475m    3.8570u  699.9967m  139.2967m  560.7038m 
 -396.37475m    3.8801u  699.9967m  139.4381m  560.5624m 
 -396.27475m    3.9034u  699.9967m  139.5795m  560.4210m 
 -396.17475m    3.9268u  699.9966m  139.7209m  560.2796m 
 -396.07475m    3.9503u  699.9966m  139.8623m  560.1382m 
 -395.97475m    3.9740u  699.9966m  140.0038m  559.9968m 
 -395.87475m    3.9978u  699.9966m  140.1452m  559.8554m 
 -395.77475m    4.0218u  699.9966m  140.2866m  559.7140m 
 -395.67475m    4.0459u  699.9965m  140.4280m  559.5726m 
 -395.57475m    4.0701u  699.9965m  140.5694m  559.4312m 
 -395.47475m    4.0945u  699.9965m  140.7108m  559.2898m 
 -395.37475m    4.1191u  699.9965m  140.8522m  559.1484m 
 -395.27475m    4.1438u  699.9965m  140.9936m  559.0071m 
 -395.17475m    4.1686u  699.9964m  141.1350m  558.8657m 
 -395.07475m    4.1936u  699.9964m  141.2764m  558.7243m 
 -394.97475m    4.2188u  699.9964m  141.4178m  558.5829m 
 -394.87475m    4.2441u  699.9964m  141.5592m  558.4415m 
 -394.77475m    4.2695u  699.9964m  141.7006m  558.3001m 
 -394.67475m    4.2952u  699.9963m  141.8420m  558.1587m 
 -394.57475m    4.3209u  699.9963m  141.9834m  558.0173m 
 -394.47475m    4.3469u  699.9963m  142.1248m  557.8759m 
 -394.37475m    4.3729u  699.9963m  142.2662m  557.7345m 
 -394.27475m    4.3992u  699.9963m  142.4076m  557.5931m 
 -394.17475m    4.4256u  699.9962m  142.5490m  557.4517m 
 -394.07475m    4.4522u  699.9962m  142.6904m  557.3103m 
 -393.97475m    4.4789u  699.9962m  142.8318m  557.1689m 
 -393.87475m    4.5058u  699.9962m  142.9732m  557.0275m 
 -393.77475m    4.5328u  699.9961m  143.1146m  556.8861m 
 -393.67475m    4.5601u  699.9961m  143.2560m  556.7447m 
 -393.57475m    4.5874u  699.9961m  143.3974m  556.6033m 
 -393.47475m    4.6150u  699.9961m  143.5388m  556.4619m 
 -393.37475m    4.6427u  699.9961m  143.6802m  556.3205m 
 -393.27475m    4.6706u  699.9960m  143.8216m  556.1792m 
 -393.17475m    4.6987u  699.9960m  143.9630m  556.0378m 
 -393.07475m    4.7269u  699.9960m  144.1043m  555.8964m 
 -392.97475m    4.7553u  699.9960m  144.2457m  555.7550m 
 -392.87475m    4.7839u  699.9959m  144.3871m  555.6136m 
 -392.77475m    4.8126u  699.9959m  144.5285m  555.4722m 
 -392.67475m    4.8415u  699.9959m  144.6699m  555.3308m 
 -392.57475m    4.8706u  699.9959m  144.8113m  555.1894m 
 -392.47475m    4.8999u  699.9958m  144.9527m  555.0480m 
 -392.37475m    4.9294u  699.9958m  145.0941m  554.9066m 
 -392.27475m    4.9590u  699.9958m  145.2355m  554.7652m 
 -392.17475m    4.9888u  699.9958m  145.3769m  554.6238m 
 -392.07475m    5.0188u  699.9957m  145.5183m  554.4824m 
 -391.97475m    5.0490u  699.9957m  145.6597m  554.3411m 
 -391.87475m    5.0794u  699.9957m  145.8011m  554.1997m 
 -391.77475m    5.1099u  699.9957m  145.9425m  554.0583m 
 -391.67475m    5.1406u  699.9956m  146.0839m  553.9169m 
 -391.57475m    5.1716u  699.9956m  146.2253m  553.7755m 
 -391.47475m    5.2027u  699.9956m  146.3667m  553.6341m 
 -391.37475m    5.2340u  699.9956m  146.5081m  553.4927m 
 -391.27475m    5.2655u  699.9955m  146.6495m  553.3513m 
 -391.17475m    5.2972u  699.9955m  146.7909m  553.2099m 
 -391.07475m    5.3290u  699.9955m  146.9323m  553.0685m 
 -390.97475m    5.3611u  699.9955m  147.0737m  552.9272m 
 -390.87475m    5.3934u  699.9954m  147.2151m  552.7858m 
 -390.77475m    5.4259u  699.9954m  147.3565m  552.6444m 
 -390.67475m    5.4585u  699.9954m  147.4979m  552.5030m 
 -390.57475m    5.4914u  699.9954m  147.6393m  552.3616m 
 -390.47475m    5.5244u  699.9953m  147.7806m  552.2202m 
 -390.37475m    5.5577u  699.9953m  147.9220m  552.0788m 
 -390.27475m    5.5912u  699.9953m  148.0634m  551.9374m 
 -390.17475m    5.6249u  699.9952m  148.2048m  551.7960m 
 -390.07475m    5.6587u  699.9952m  148.3462m  551.6547m 
 -389.97475m    5.6928u  699.9952m  148.4876m  551.5133m 
 -389.87475m    5.7271u  699.9952m  148.6290m  551.3719m 
 -389.77475m    5.7616u  699.9951m  148.7704m  551.2305m 
 -389.67475m    5.7963u  699.9951m  148.9118m  551.0891m 
 -389.57475m    5.8313u  699.9951m  149.0532m  550.9477m 
 -389.47475m    5.8664u  699.9951m  149.1946m  550.8063m 
 -389.37475m    5.9018u  699.9950m  149.3360m  550.6649m 
 -389.27475m    5.9373u  699.9950m  149.4774m  550.5236m 
 -389.17475m    5.9731u  699.9950m  149.6188m  550.3822m 
 -389.07475m    6.0091u  699.9949m  149.7601m  550.2408m 
 -388.97475m    6.0454u  699.9949m  149.9015m  550.0994m 
 -388.87475m    6.0818u  699.9949m  150.0429m  549.9580m 
 -388.77475m    6.1185u  699.9948m  150.1843m  549.8166m 
 -388.67475m    6.1554u  699.9948m  150.3257m  549.6753m 
 -388.57475m    6.1925u  699.9948m  150.4671m  549.5339m 
 -388.47475m    6.2299u  699.9948m  150.6085m  549.3925m 
 -388.37475m    6.2675u  699.9947m  150.7499m  549.2511m 
 -388.27475m    6.3053u  699.9947m  150.8913m  549.1097m 
 -388.17475m    6.3433u  699.9947m  151.0327m  548.9683m 
 -388.07475m    6.3816u  699.9946m  151.1741m  548.8270m 
 -387.97475m    6.4201u  699.9946m  151.3154m  548.6856m 
 -387.87475m    6.4588u  699.9946m  151.4568m  548.5442m 
 -387.77475m    6.4978u  699.9945m  151.5982m  548.4028m 
 -387.67475m    6.5370u  699.9945m  151.7396m  548.2614m 
 -387.57475m    6.5765u  699.9945m  151.8810m  548.1200m 
 -387.47475m    6.6162u  699.9944m  152.0224m  547.9787m 
 -387.37475m    6.6561u  699.9944m  152.1638m  547.8373m 
 -387.27475m    6.6963u  699.9944m  152.3052m  547.6959m 
 -387.17475m    6.7368u  699.9943m  152.4466m  547.5545m 
 -387.07475m    6.7774u  699.9943m  152.5879m  547.4131m 
 -386.97475m    6.8184u  699.9943m  152.7293m  547.2718m 
 -386.87475m    6.8596u  699.9942m  152.8707m  547.1304m 
 -386.77475m    6.9010u  699.9942m  153.0121m  546.9890m 
 -386.67475m    6.9427u  699.9942m  153.1535m  546.8476m 
 -386.57475m    6.9846u  699.9941m  153.2949m  546.7062m 
 -386.47475m    7.0268u  699.9941m  153.4363m  546.5649m 
 -386.37475m    7.0693u  699.9941m  153.5777m  546.4235m 
 -386.27475m    7.1120u  699.9940m  153.7190m  546.2821m 
 -386.17475m    7.1550u  699.9940m  153.8604m  546.1407m 
 -386.07475m    7.1982u  699.9940m  154.0018m  545.9993m 
 -385.97475m    7.2418u  699.9939m  154.1432m  545.8580m 
 -385.87475m    7.2855u  699.9939m  154.2846m  545.7166m 
 -385.77475m    7.3296u  699.9939m  154.4260m  545.5752m 
 -385.67475m    7.3739u  699.9938m  154.5674m  545.4338m 
 -385.57475m    7.4185u  699.9938m  154.7087m  545.2925m 
 -385.47475m    7.4633u  699.9937m  154.8501m  545.1511m 
 -385.37475m    7.5085u  699.9937m  154.9915m  545.0097m 
 -385.27475m    7.5539u  699.9937m  155.1329m  544.8683m 
 -385.17475m    7.5996u  699.9936m  155.2743m  544.7270m 
 -385.07475m    7.6456u  699.9936m  155.4157m  544.5856m 
 -384.97475m    7.6918u  699.9936m  155.5571m  544.4442m 
 -384.87475m    7.7383u  699.9935m  155.6984m  544.3028m 
 -384.77475m    7.7852u  699.9935m  155.8398m  544.1615m 
 -384.67475m    7.8323u  699.9934m  155.9812m  544.0201m 
 -384.57475m    7.8797u  699.9934m  156.1226m  543.8787m 
 -384.47475m    7.9274u  699.9934m  156.2640m  543.7373m 
 -384.37475m    7.9754u  699.9933m  156.4054m  543.5960m 
 -384.27475m    8.0236u  699.9933m  156.5467m  543.4546m 
 -384.17475m    8.0722u  699.9933m  156.6881m  543.3132m 
 -384.07475m    8.1211u  699.9932m  156.8295m  543.1718m 
 -383.97475m    8.1703u  699.9932m  156.9709m  543.0305m 
 -383.87475m    8.2197u  699.9931m  157.1123m  542.8891m 
 -383.77475m    8.2695u  699.9931m  157.2536m  542.7477m 
 -383.67475m    8.3196u  699.9931m  157.3950m  542.6064m 
 -383.57475m    8.3700u  699.9930m  157.5364m  542.4650m 
 -383.47475m    8.4207u  699.9930m  157.6778m  542.3236m 
 -383.37475m    8.4717u  699.9929m  157.8192m  542.1822m 
 -383.27475m    8.5230u  699.9929m  157.9605m  542.0409m 
 -383.17475m    8.5747u  699.9928m  158.1019m  541.8995m 
 -383.07475m    8.6266u  699.9928m  158.2433m  541.7581m 
 -382.97475m    8.6789u  699.9928m  158.3847m  541.6168m 
 -382.87475m    8.7315u  699.9927m  158.5261m  541.4754m 
 -382.77475m    8.7844u  699.9927m  158.6674m  541.3340m 
 -382.67475m    8.8377u  699.9926m  158.8088m  541.1927m 
 -382.57475m    8.8913u  699.9926m  158.9502m  541.0513m 
 -382.47475m    8.9452u  699.9925m  159.0916m  540.9099m 
 -382.37475m    8.9994u  699.9925m  159.2329m  540.7686m 
 -382.27475m    9.0540u  699.9925m  159.3743m  540.6272m 
 -382.17475m    9.1089u  699.9924m  159.5157m  540.4858m 
 -382.07475m    9.1641u  699.9924m  159.6571m  540.3445m 
 -381.97475m    9.2197u  699.9923m  159.7985m  540.2031m 
 -381.87475m    9.2756u  699.9923m  159.9398m  540.0617m 
 -381.77475m    9.3319u  699.9922m  160.0812m  539.9204m 
 -381.67475m    9.3885u  699.9922m  160.2226m  539.7790m 
 -381.57475m    9.4455u  699.9921m  160.3640m  539.6376m 
 -381.47475m    9.5028u  699.9921m  160.5053m  539.4963m 
 -381.37475m    9.5605u  699.9920m  160.6467m  539.3549m 
 -381.27475m    9.6185u  699.9920m  160.7881m  539.2135m 
 -381.17475m    9.6769u  699.9920m  160.9295m  539.0722m 
 -381.07475m    9.7356u  699.9919m  161.0708m  538.9308m 
 -380.97475m    9.7947u  699.9919m  161.2122m  538.7894m 
 -380.87475m    9.8542u  699.9918m  161.3536m  538.6481m 
 -380.77475m    9.9140u  699.9918m  161.4950m  538.5067m 
 -380.67475m    9.9742u  699.9917m  161.6363m  538.3654m 
 -380.57475m   10.0348u  699.9917m  161.7777m  538.2240m 
 -380.47475m   10.0957u  699.9916m  161.9191m  538.0826m 
 -380.37475m   10.1571u  699.9916m  162.0604m  537.9413m 
 -380.27475m   10.2188u  699.9915m  162.2018m  537.7999m 
 -380.17475m   10.2808u  699.9915m  162.3432m  537.6586m 
 -380.07475m   10.3433u  699.9914m  162.4846m  537.5172m 
 -379.97475m   10.4061u  699.9914m  162.6259m  537.3758m 
 -379.87475m   10.4694u  699.9913m  162.7673m  537.2345m 
 -379.77475m   10.5330u  699.9913m  162.9087m  537.0931m 
 -379.67475m   10.5970u  699.9912m  163.0500m  536.9518m 
 -379.57475m   10.6614u  699.9912m  163.1914m  536.8104m 
 -379.47475m   10.7262u  699.9911m  163.3328m  536.6691m 
 -379.37475m   10.7914u  699.9911m  163.4741m  536.5277m 
 -379.27475m   10.8570u  699.9910m  163.6155m  536.3863m 
 -379.17475m   10.9230u  699.9910m  163.7569m  536.2450m 
 -379.07475m   10.9895u  699.9909m  163.8983m  536.1036m 
 -378.97475m   11.0563u  699.9908m  164.0396m  535.9623m 
 -378.87475m   11.1235u  699.9908m  164.1810m  535.8209m 
 -378.77475m   11.1912u  699.9907m  164.3224m  535.6796m 
 -378.67475m   11.2592u  699.9907m  164.4637m  535.5382m 
 -378.57475m   11.3277u  699.9906m  164.6051m  535.3969m 
 -378.47475m   11.3966u  699.9906m  164.7465m  535.2555m 
 -378.37475m   11.4660u  699.9905m  164.8878m  535.1142m 
 -378.27475m   11.5358u  699.9905m  165.0292m  534.9728m 
 -378.17475m   11.6060u  699.9904m  165.1706m  534.8315m 
 -378.07475m   11.6766u  699.9903m  165.3119m  534.6901m 
 -377.97475m   11.7477u  699.9903m  165.4533m  534.5488m 
 -377.87475m   11.8192u  699.9902m  165.5946m  534.4074m 
 -377.77475m   11.8911u  699.9902m  165.7360m  534.2661m 
 -377.67475m   11.9635u  699.9901m  165.8774m  534.1247m 
 -377.57475m   12.0363u  699.9901m  166.0187m  533.9834m 
 -377.47475m   12.1096u  699.9900m  166.1601m  533.8420m 
 -377.37475m   12.1834u  699.9899m  166.3015m  533.7007m 
 -377.27475m   12.2576u  699.9899m  166.4428m  533.5593m 
 -377.17475m   12.3322u  699.9898m  166.5842m  533.4180m 
 -377.07475m   12.4073u  699.9898m  166.7255m  533.2766m 
 -376.97475m   12.4829u  699.9897m  166.8669m  533.1353m 
 -376.87475m   12.5589u  699.9896m  167.0083m  532.9939m 
 -376.77475m   12.6355u  699.9896m  167.1496m  532.8526m 
 -376.67475m   12.7125u  699.9895m  167.2910m  532.7112m 
 -376.57475m   12.7899u  699.9895m  167.4323m  532.5699m 
 -376.47475m   12.8679u  699.9894m  167.5737m  532.4286m 
 -376.37475m   12.9463u  699.9893m  167.7151m  532.2872m 
 -376.27475m   13.0252u  699.9893m  167.8564m  532.1459m 
 -376.17475m   13.1046u  699.9892m  167.9978m  532.0045m 
 -376.07475m   13.1845u  699.9891m  168.1391m  531.8632m 
 -375.97475m   13.2649u  699.9891m  168.2805m  531.7219m 
 -375.87475m   13.3457u  699.9890m  168.4219m  531.5805m 
 -375.77475m   13.4271u  699.9890m  168.5632m  531.4392m 
 -375.67475m   13.5090u  699.9889m  168.7046m  531.2978m 
 -375.57475m   13.5914u  699.9888m  168.8459m  531.1565m 
 -375.47475m   13.6743u  699.9888m  168.9873m  531.0152m 
 -375.37475m   13.7577u  699.9887m  169.1286m  530.8738m 
 -375.27475m   13.8416u  699.9886m  169.2700m  530.7325m 
 -375.17475m   13.9261u  699.9886m  169.4113m  530.5911m 
 -375.07475m   14.0110u  699.9885m  169.5527m  530.4498m 
 -374.97475m   14.0965u  699.9884m  169.6940m  530.3085m 
 -374.87475m   14.1826u  699.9883m  169.8354m  530.1671m 
 -374.77475m   14.2691u  699.9883m  169.9768m  530.0258m 
 -374.67475m   14.3562u  699.9882m  170.1181m  529.8845m 
 -374.57475m   14.4438u  699.9881m  170.2595m  529.7431m 
 -374.47475m   14.5320u  699.9881m  170.4008m  529.6018m 
 -374.37475m   14.6207u  699.9880m  170.5422m  529.4605m 
 -374.27475m   14.7100u  699.9879m  170.6835m  529.3191m 
 -374.17475m   14.7998u  699.9879m  170.8249m  529.1778m 
 -374.07475m   14.8902u  699.9878m  170.9662m  529.0365m 
 -373.97475m   14.9811u  699.9877m  171.1076m  528.8951m 
 -373.87475m   15.0726u  699.9876m  171.2489m  528.7538m 
 -373.77475m   15.1647u  699.9876m  171.3903m  528.6125m 
 -373.67475m   15.2573u  699.9875m  171.5316m  528.4712m 
 -373.57475m   15.3506u  699.9874m  171.6729m  528.3298m 
 -373.47475m   15.4443u  699.9873m  171.8143m  528.1885m 
 -373.37475m   15.5387u  699.9873m  171.9556m  528.0472m 
 -373.27475m   15.6337u  699.9872m  172.0970m  527.9058m 
 -373.17475m   15.7292u  699.9871m  172.2383m  527.7645m 
 -373.07475m   15.8254u  699.9870m  172.3797m  527.6232m 
 -372.97475m   15.9221u  699.9870m  172.5210m  527.4819m 
 -372.87475m   16.0194u  699.9869m  172.6624m  527.3405m 
 -372.77475m   16.1174u  699.9868m  172.8037m  527.1992m 
 -372.67475m   16.2159u  699.9867m  172.9451m  527.0579m 
 -372.57475m   16.3150u  699.9867m  173.0864m  526.9166m 
 -372.47475m   16.4148u  699.9866m  173.2277m  526.7753m 
 -372.37475m   16.5152u  699.9865m  173.3691m  526.6339m 
 -372.27475m   16.6162u  699.9864m  173.5104m  526.4926m 
 -372.17475m   16.7178u  699.9863m  173.6518m  526.3513m 
 -372.07475m   16.8201u  699.9863m  173.7931m  526.2100m 
 -371.97475m   16.9230u  699.9862m  173.9344m  526.0687m 
 -371.87475m   17.0265u  699.9861m  174.0758m  525.9273m 
 -371.77475m   17.1307u  699.9860m  174.2171m  525.7860m 
 -371.67475m   17.2356u  699.9859m  174.3585m  525.6447m 
 -371.57475m   17.3410u  699.9858m  174.4998m  525.5034m 
 -371.47475m   17.4472u  699.9858m  174.6411m  525.3621m 
 -371.37475m   17.5540u  699.9857m  174.7825m  525.2208m 
 -371.27475m   17.6614u  699.9856m  174.9238m  525.0794m 
 -371.17475m   17.7695u  699.9855m  175.0651m  524.9381m 
 -371.07475m   17.8783u  699.9854m  175.2065m  524.7968m 
 -370.97475m   17.9878u  699.9853m  175.3478m  524.6555m 
 -370.87475m   18.0979u  699.9852m  175.4891m  524.5142m 
 -370.77475m   18.2088u  699.9852m  175.6305m  524.3729m 
 -370.67475m   18.3203u  699.9851m  175.7718m  524.2316m 
 -370.57475m   18.4325u  699.9850m  175.9131m  524.0903m 
 -370.47475m   18.5454u  699.9849m  176.0545m  523.9490m 
 -370.37475m   18.6590u  699.9848m  176.1958m  523.8076m 
 -370.27475m   18.7734u  699.9847m  176.3371m  523.6663m 
 -370.17475m   18.8884u  699.9846m  176.4785m  523.5250m 
 -370.07475m   19.0041u  699.9845m  176.6198m  523.3837m 
 -369.97475m   19.1206u  699.9844m  176.7611m  523.2424m 
 -369.87475m   19.2378u  699.9843m  176.9025m  523.1011m 
 -369.77475m   19.3557u  699.9843m  177.0438m  522.9598m 
 -369.67475m   19.4743u  699.9842m  177.1851m  522.8185m 
 -369.57475m   19.5937u  699.9841m  177.3264m  522.6772m 
 -369.47475m   19.7138u  699.9840m  177.4678m  522.5359m 
 -369.37475m   19.8347u  699.9839m  177.6091m  522.3946m 
 -369.27475m   19.9563u  699.9838m  177.7504m  522.2533m 
 -369.17475m   20.0787u  699.9837m  177.8918m  522.1120m 
 -369.07475m   20.2019u  699.9836m  178.0331m  521.9707m 
 -368.97475m   20.3258u  699.9835m  178.1744m  521.8294m 
 -368.87475m   20.4504u  699.9834m  178.3157m  521.6881m 
 -368.77475m   20.5759u  699.9833m  178.4570m  521.5468m 
 -368.67475m   20.7021u  699.9832m  178.5984m  521.4055m 
 -368.57475m   20.8292u  699.9831m  178.7397m  521.2642m 
 -368.47475m   20.9570u  699.9830m  178.8810m  521.1229m 
 -368.37475m   21.0856u  699.9829m  179.0223m  520.9816m 
 -368.27475m   21.2150u  699.9828m  179.1636m  520.8404m 
 -368.17475m   21.3452u  699.9827m  179.3050m  520.6991m 
 -368.07475m   21.4762u  699.9826m  179.4463m  520.5578m 
 -367.97475m   21.6080u  699.9825m  179.5876m  520.4165m 
 -367.87475m   21.7407u  699.9824m  179.7289m  520.2752m 
 -367.77475m   21.8742u  699.9823m  179.8702m  520.1339m 
 -367.67475m   22.0085u  699.9822m  180.0116m  519.9926m 
 -367.57475m   22.1437u  699.9821m  180.1529m  519.8513m 
 -367.47475m   22.2796u  699.9820m  180.2942m  519.7101m 
 -367.37475m   22.4165u  699.9818m  180.4355m  519.5688m 
 -367.27475m   22.5542u  699.9817m  180.5768m  519.4275m 
 -367.17475m   22.6927u  699.9816m  180.7181m  519.2862m 
 -367.07475m   22.8321u  699.9815m  180.8594m  519.1449m 
 -366.97475m   22.9724u  699.9814m  181.0007m  519.0036m 
 -366.87475m   23.1136u  699.9813m  181.1421m  518.8624m 
 -366.77475m   23.2556u  699.9812m  181.2834m  518.7211m 
 -366.67475m   23.3985u  699.9811m  181.4247m  518.5798m 
 -366.57475m   23.5424u  699.9810m  181.5660m  518.4385m 
 -366.47475m   23.6871u  699.9809m  181.7073m  518.2972m 
 -366.37475m   23.8327u  699.9807m  181.8486m  518.1560m 
 -366.27475m   23.9792u  699.9806m  181.9899m  518.0147m 
 -366.17475m   24.1266u  699.9805m  182.1312m  517.8734m 
 -366.07475m   24.2750u  699.9804m  182.2725m  517.7321m 
 -365.97475m   24.4242u  699.9803m  182.4138m  517.5909m 
 -365.87475m   24.5744u  699.9802m  182.5551m  517.4496m 
 -365.77475m   24.7256u  699.9800m  182.6964m  517.3083m 
 -365.67475m   24.8777u  699.9799m  182.8377m  517.1671m 
 -365.57475m   25.0307u  699.9798m  182.9790m  517.0258m 
 -365.47475m   25.1847u  699.9797m  183.1203m  516.8845m 
 -365.37475m   25.3396u  699.9796m  183.2616m  516.7433m 
 -365.27475m   25.4956u  699.9794m  183.4029m  516.6020m 
 -365.17475m   25.6525u  699.9793m  183.5442m  516.4607m 
 -365.07475m   25.8103u  699.9792m  183.6855m  516.3195m 
 -364.97475m   25.9692u  699.9791m  183.8268m  516.1782m 
 -364.87475m   26.1290u  699.9789m  183.9681m  516.0369m 
 -364.77475m   26.2899u  699.9788m  184.1094m  515.8957m 
 -364.67475m   26.4517u  699.9787m  184.2507m  515.7544m 
 -364.57475m   26.6146u  699.9786m  184.3920m  515.6132m 
 -364.47475m   26.7784u  699.9784m  184.5333m  515.4719m 
 -364.37475m   26.9433u  699.9783m  184.6746m  515.3307m 
 -364.27475m   27.1093u  699.9782m  184.8159m  515.1894m 
 -364.17475m   27.2762u  699.9781m  184.9572m  515.0481m 
 -364.07475m   27.4442u  699.9779m  185.0985m  514.9069m 
 -363.97475m   27.6133u  699.9778m  185.2398m  514.7656m 
 -363.87475m   27.7834u  699.9777m  185.3811m  514.6244m 
 -363.77475m   27.9546u  699.9775m  185.5223m  514.4831m 
 -363.67475m   28.1268u  699.9774m  185.6636m  514.3419m 
 -363.57475m   28.3001u  699.9773m  185.8049m  514.2006m 
 -363.47475m   28.4745u  699.9771m  185.9462m  514.0594m 
 -363.37475m   28.6500u  699.9770m  186.0875m  513.9181m 
 -363.27475m   28.8266u  699.9768m  186.2288m  513.7769m 
 -363.17475m   29.0043u  699.9767m  186.3701m  513.6357m 
 -363.07475m   29.1831u  699.9766m  186.5113m  513.4944m 
 -362.97475m   29.3630u  699.9764m  186.6526m  513.3532m 
 -362.87475m   29.5441u  699.9763m  186.7939m  513.2119m 
 -362.77475m   29.7262u  699.9761m  186.9352m  513.0707m 
 -362.67475m   29.9096u  699.9760m  187.0765m  512.9295m 
 -362.57475m   30.0940u  699.9759m  187.2177m  512.7882m 
 -362.47475m   30.2796u  699.9757m  187.3590m  512.6470m 
 -362.37475m   30.4664u  699.9756m  187.5003m  512.5057m 
 -362.27475m   30.6544u  699.9754m  187.6416m  512.3645m 
 -362.17475m   30.8435u  699.9753m  187.7828m  512.2233m 
 -362.07475m   31.0338u  699.9751m  187.9241m  512.0821m 
 -361.97475m   31.2253u  699.9750m  188.0654m  511.9408m 
 -361.87475m   31.4180u  699.9748m  188.2067m  511.7996m 
 -361.77475m   31.6119u  699.9747m  188.3479m  511.6584m 
 -361.67475m   31.8070u  699.9745m  188.4892m  511.5171m 
 -361.57475m   32.0033u  699.9744m  188.6305m  511.3759m 
 -361.47475m   32.2009u  699.9742m  188.7717m  511.2347m 
 -361.37475m   32.3997u  699.9741m  188.9130m  511.0935m 
 -361.27475m   32.5997u  699.9739m  189.0543m  510.9522m 
 -361.17475m   32.8010u  699.9738m  189.1955m  510.8110m 
 -361.07475m   33.0036u  699.9736m  189.3368m  510.6698m 
 -360.97475m   33.2074u  699.9734m  189.4781m  510.5286m 
 -360.87475m   33.4125u  699.9733m  189.6193m  510.3874m 
 -360.77475m   33.6189u  699.9731m  189.7606m  510.2462m 
 -360.67475m   33.8265u  699.9730m  189.9018m  510.1049m 
 -360.57475m   34.0355u  699.9728m  190.0431m  509.9637m 
 -360.47475m   34.2458u  699.9726m  190.1844m  509.8225m 
 -360.37475m   34.4574u  699.9725m  190.3256m  509.6813m 
 -360.27475m   34.6703u  699.9723m  190.4669m  509.5401m 
 -360.17475m   34.8846u  699.9722m  190.6081m  509.3989m 
 -360.07475m   35.1002u  699.9720m  190.7494m  509.2577m 
[...]
  256.45729m  399.9998m  608.6138n  362.6860m   37.3144m 
  256.55729m  399.9998m  603.2027n  362.8274m   37.1730m 
  256.65729m  399.9998m  597.8439n  362.9688m   37.0316m 
  256.75729m  399.9998m  592.5368n  363.1102m   36.8901m 
  256.85729m  399.9998m  587.2811n  363.2516m   36.7487m 
  256.95729m  399.9998m  582.0760n  363.3931m   36.6073m 
  257.05729m  399.9998m  576.9212n  363.5345m   36.4659m 
  257.15729m  399.9998m  571.8161n  363.6759m   36.3245m 
  257.25729m  399.9998m  566.7603n  363.8173m   36.1830m 
  257.35729m  399.9998m  561.7531n  363.9587m   36.0416m 
  257.45729m  399.9998m  556.7942n  364.1001m   35.9002m 
  257.55729m  399.9998m  551.8830n  364.2416m   35.7588m 
  257.65729m  399.9998m  547.0190n  364.3830m   35.6174m 
  257.75729m  399.9998m  542.2019n  364.5244m   35.4759m 
  257.85729m  399.9998m  537.4310n  364.6658m   35.3345m 
  257.95729m  399.9998m  532.7060n  364.8072m   35.1931m 
  258.05729m  399.9998m  528.0263n  364.9486m   35.0517m 
  258.15729m  399.9998m  523.3916n  365.0901m   34.9103m 
  258.25729m  399.9998m  518.8013n  365.2315m   34.7688m 
  258.35729m  399.9998m  514.2550n  365.3729m   34.6274m 
  258.45729m  399.9998m  509.7523n  365.5143m   34.4860m 
  258.55729m  399.9998m  505.2928n  365.6557m   34.3446m 
  258.65729m  399.9998m  500.8759n  365.7971m   34.2032m 
  258.75729m  399.9998m  496.5013n  365.9386m   34.0617m 
  258.85729m  399.9998m  492.1686n  366.0800m   33.9203m 
  258.95729m  399.9998m  487.8773n  366.2214m   33.7789m 
  259.05729m  399.9998m  483.6270n  366.3628m   33.6375m 
  259.15729m  399.9998m  479.4172n  366.5042m   33.4961m 
  259.25729m  399.9998m  475.2477n  366.6456m   33.3546m 
  259.35729m  399.9998m  471.1179n  366.7871m   33.2132m 
  259.45729m  399.9998m  467.0276n  366.9285m   33.0718m 
  259.55729m  399.9998m  462.9762n  367.0699m   32.9304m 
  259.65729m  399.9998m  458.9634n  367.2113m   32.7890m 
  259.75729m  399.9998m  454.9888n  367.3527m   32.6475m 
  259.85729m  399.9998m  451.0520n  367.4942m   32.5061m 
  259.95729m  399.9998m  447.1527n  367.6356m   32.3647m 
  260.05729m  399.9998m  443.2905n  367.7770m   32.2233m 
  260.15729m  399.9998m  439.4649n  367.9184m   32.0819m 
  260.25729m  399.9998m  435.6757n  368.0598m   31.9404m 
  260.35729m  399.9998m  431.9225n  368.2012m   31.7990m 
  260.45729m  399.9998m  428.2048n  368.3427m   31.6576m 
  260.55729m  399.9998m  424.5225n  368.4841m   31.5162m 
  260.65729m  399.9998m  420.8750n  368.6255m   31.3748m 
  260.75729m  399.9998m  417.2620n  368.7669m   31.2333m 
  260.85729m  399.9998m  413.6833n  368.9083m   31.0919m 
  260.95729m  399.9998m  410.1384n  369.0497m   30.9505m 
  261.05729m  399.9998m  406.6271n  369.1912m   30.8091m 
  261.15729m  399.9998m  403.1489n  369.3326m   30.6677m 
  261.25729m  399.9998m  399.7036n  369.4740m   30.5262m 
  261.35729m  399.9998m  396.2909n  369.6154m   30.3848m 
  261.45729m  399.9998m  392.9103n  369.7568m   30.2434m 
  261.55729m  399.9998m  389.5616n  369.8983m   30.1020m 
  261.65729m  399.9998m  386.2445n  370.0397m   29.9606m 
  261.75729m  399.9998m  382.9587n  370.1811m   29.8191m 
  261.85729m  399.9998m  379.7038n  370.3225m   29.6777m 
  261.95729m  399.9998m  376.4795n  370.4639m   29.5363m 
  262.05729m  399.9998m  373.2855n  370.6053m   29.3949m 
  262.15729m  399.9998m  370.1216n  370.7468m   29.2535m 
  262.25729m  399.9998m  366.9874n  370.8882m   29.1120m 
  262.35729m  399.9998m  363.8827n  371.0296m   28.9706m 
  262.45729m  399.9998m  360.8070n  371.1710m   28.8292m 
  262.55729m  399.9998m  357.7603n  371.3124m   28.6878m 
  262.65729m  399.9998m  354.7421n  371.4539m   28.5464m 
  262.75729m  399.9998m  351.7522n  371.5953m   28.4049m 
  262.85729m  399.9999m  348.7902n  371.7367m   28.2635m 
  262.95729m  399.9999m  345.8560n  371.8781m   28.1221m 
  263.05729m  399.9999m  342.9493n  372.0195m   27.9807m 
  263.15729m  399.9999m  340.0697n  372.1609m   27.8392m 
  263.25729m  399.9999m  337.2171n  372.3024m   27.6978m 
  263.35729m  399.9999m  334.3910n  372.4438m   27.5564m 
  263.45729m  399.9999m  331.5914n  372.5852m   27.4150m 
  263.55729m  399.9999m  328.8179n  372.7266m   27.2736m 
  263.65729m  399.9999m  326.0702n  372.8680m   27.1321m 
  263.75729m  399.9999m  323.3481n  373.0095m   26.9907m 
  263.85729m  399.9999m  320.6514n  373.1509m   26.8493m 
  263.95729m  399.9999m  317.9798n  373.2923m   26.7079m 
  264.05729m  399.9999m  315.3330n  373.4337m   26.5665m 
  264.15729m  399.9999m  312.7109n  373.5751m   26.4250m 
  264.25729m  399.9999m  310.1131n  373.7166m   26.2836m 
  264.35729m  399.9999m  307.5394n  373.8580m   26.1422m 
  264.45729m  399.9999m  304.9896n  373.9994m   26.0008m 
  264.55729m  399.9999m  302.4634n  374.1408m   25.8594m 
  264.65729m  399.9999m  299.9607n  374.2822m   25.7179m 
  264.75729m  399.9999m  297.4812n  374.4236m   25.5765m 
  264.85729m  399.9999m  295.0246n  374.5651m   25.4351m 
  264.95729m  399.9999m  292.5908n  374.7065m   25.2937m 
  265.05729m  399.9999m  290.1794n  374.8479m   25.1523m 
  265.15729m  399.9999m  287.7904n  374.9893m   25.0108m 
  265.25729m  399.9999m  285.4234n  375.1307m   24.8694m 
  265.35729m  399.9999m  283.0782n  375.2722m   24.7280m 
  265.45729m  399.9999m  280.7547n  375.4136m   24.5866m 
  265.55729m  399.9999m  278.4527n  375.5550m   24.4452m 
  265.65729m  399.9999m  276.1718n  375.6964m   24.3037m 
  265.75729m  399.9999m  273.9120n  375.8378m   24.1623m 
  265.85729m  399.9999m  271.6729n  375.9793m   24.0209m 
  265.95729m  399.9999m  269.4545n  376.1207m   23.8795m 
  266.05729m  399.9999m  267.2564n  376.2621m   23.7381m 
  266.15729m  399.9999m  265.0785n  376.4035m   23.5966m 
  266.25729m  399.9999m  262.9207n  376.5449m   23.4552m 
  266.35729m  399.9999m  260.7826n  376.6863m   23.3138m 
  266.45729m  399.9999m  258.6642n  376.8278m   23.1724m 
  266.55729m  399.9999m  256.5651n  376.9692m   23.0310m 
  266.65729m  399.9999m  254.4853n  377.1106m   22.8895m 
  266.75729m  399.9999m  252.4245n  377.2520m   22.7481m 
  266.85729m  399.9999m  250.3826n  377.3934m   22.6067m 
  266.95729m  399.9999m  248.3594n  377.5349m   22.4653m 
  267.05729m  399.9999m  246.3546n  377.6763m   22.3238m 
  267.15729m  399.9999m  244.3682n  377.8177m   22.1824m 
  267.25729m  399.9999m  242.3999n  377.9591m   22.0410m 
  267.35729m  399.9999m  240.4495n  378.1005m   21.8996m 
  267.45729m  399.9999m  238.5169n  378.2420m   21.7582m 
  267.55729m  399.9999m  236.6019n  378.3834m   21.6167m 
  267.65729m  399.9999m  234.7044n  378.5248m   21.4753m 
  267.75729m  399.9999m  232.8241n  378.6662m   21.3339m 
  267.85729m  399.9999m  230.9609n  378.8076m   21.1925m 
  267.95729m  399.9999m  229.1146n  378.9491m   21.0511m 
  268.05729m  399.9999m  227.2851n  379.0905m   20.9096m 
  268.15729m  399.9999m  225.4723n  379.2319m   20.7682m 
  268.25729m  399.9999m  223.6758n  379.3733m   20.6268m 
  268.35729m  399.9999m  221.8956n  379.5147m   20.4854m 
  268.45729m  399.9999m  220.1316n  379.6562m   20.3440m 
  268.55729m  399.9999m  218.3835n  379.7976m   20.2025m 
  268.65729m  399.9999m  216.6513n  379.9390m   20.0611m 
  268.75729m  399.9999m  214.9347n  380.0804m   19.9197m 
  268.85729m  399.9999m  213.2336n  380.2218m   19.7783m 
  268.95729m  399.9999m  211.5479n  380.3633m   19.6369m 
  269.05729m  399.9999m  209.8774n  380.5047m   19.4954m 
  269.15729m  399.9999m  208.2219n  380.6461m   19.3540m 
  269.25729m  399.9999m  206.5814n  380.7875m   19.2126m 
  269.35729m  399.9999m  204.9557n  380.9289m   19.0712m 
  269.45729m  399.9999m  203.3446n  381.0704m   18.9298m 
  269.55729m  399.9999m  201.7479n  381.2118m   18.7883m 
  269.65729m  399.9999m  200.1657n  381.3532m   18.6469m 
  269.75729m  399.9999m  198.5976n  381.4946m   18.5055m 
  269.85729m  399.9999m  197.0436n  381.6360m   18.3641m 
  269.95729m  399.9999m  195.5036n  381.7775m   18.2226m 
  270.05729m  399.9999m  193.9774n  381.9189m   18.0812m 
  270.15729m  399.9999m  192.4648n  382.0603m   17.9398m 
  270.25729m  399.9999m  190.9658n  382.2017m   17.7984m 
  270.35729m  399.9999m  189.4802n  382.3431m   17.6570m 
  270.45729m  399.9999m  188.0079n  382.4846m   17.5155m 
  270.55729m  399.9999m  186.5487n  382.6260m   17.3741m 
  270.65729m  399.9999m  185.1026n  382.7674m   17.2327m 
  270.75729m  399.9999m  183.6694n  382.9088m   17.0913m 
  270.85729m  399.9999m  182.2489n  383.0502m   16.9499m 
  270.95729m  399.9999m  180.8412n  383.1917m   16.8084m 
  271.05729m  399.9999m  179.4459n  383.3331m   16.6670m 
  271.15729m  399.9999m  178.0631n  383.4745m   16.5256m 
  271.25729m  399.9999m  176.6926n  383.6159m   16.3842m 
  271.35729m  399.9999m  175.3343n  383.7573m   16.2428m 
  271.45729m  399.9999m  173.9880n  383.8988m   16.1013m 
  271.55729m  399.9999m  172.6537n  384.0402m   15.9599m 
  271.65729m  399.9999m  171.3312n  384.1816m   15.8185m 
  271.75729m  399.9999m  170.0204n  384.3230m   15.6771m 
  271.85729m  399.9999m  168.7213n  384.4644m   15.5357m 
  271.95729m  399.9999m  167.4337n  384.6059m   15.3942m 
  272.05729m  399.9999m  166.1574n  384.7473m   15.2528m 
  272.15729m  399.9999m  164.8924n  384.8887m   15.1114m 
  272.25729m  399.9999m  163.6386n  385.0301m   14.9700m 
  272.35729m  399.9999m  162.3959n  385.1715m   14.8286m 
  272.45729m  399.9999m  161.1642n  385.3130m   14.6871m 
  272.55729m  399.9999m  159.9433n  385.4544m   14.5457m 
  272.65729m  399.9999m  158.7331n  385.5958m   14.4043m 
  272.75729m  399.9999m  157.5337n  385.7372m   14.2629m 
  272.85729m  399.9999m  156.3447n  385.8786m   14.1214m 
  272.95729m  399.9999m  155.1663n  386.0201m   13.9800m 
  273.05729m  399.9999m  153.9981n  386.1615m   13.8386m 
  273.15729m  399.9999m  152.8403n  386.3029m   13.6972m 
  273.25729m  399.9999m  151.6926n  386.4443m   13.5558m 
  273.35729m  399.9999m  150.5549n  386.5857m   13.4143m 
  273.45729m  399.9999m  149.4273n  386.7272m   13.2729m 
  273.55729m  399.9999m  148.3095n  386.8686m   13.1315m 
  273.65729m  399.9999m  147.2015n  387.0100m   12.9901m 
  273.75729m  399.9999m  146.1031n  387.1514m   12.8487m 
  273.85729m  399.9999m  145.0144n  387.2928m   12.7072m 
  273.95729m  399.9999m  143.9352n  387.4343m   12.5658m 
  274.05729m  399.9999m  142.8654n  387.5757m   12.4244m 
  274.15729m  399.9999m  141.8049n  387.7171m   12.2830m 
  274.25729m  399.9999m  140.7537n  387.8585m   12.1416m 
  274.35729m  399.9999m  139.7116n  387.9999m   12.0001m 
  274.45729m  399.9999m  138.6786n  388.1414m   11.8587m 
  274.55729m  399.9999m  137.6546n  388.2828m   11.7173m 
  274.65729m  399.9999m  136.6394n  388.4242m   11.5759m 
  274.75729m  399.9999m  135.6331n  388.5656m   11.4344m 
  274.85729m  399.9999m  134.6355n  388.7070m   11.2930m 
  274.95729m  399.9999m  133.6466n  388.8485m   11.1516m 
  275.05729m  399.9999m  132.6662n  388.9899m   11.0102m 
  275.15729m  399.9999m  131.6944n  389.1313m   10.8688m 
  275.25729m  399.9999m  130.7309n  389.2727m   10.7273m 
  275.35729m  399.9999m  129.7758n  389.4141m   10.5859m 
  275.45729m  399.9999m  128.8289n  389.5556m   10.4445m 
  275.55729m  399.9999m  127.8902n  389.6970m   10.3031m 
  275.65729m  399.9999m  126.9595n  389.8384m   10.1617m 
  275.75729m  399.9999m  126.0370n  389.9798m   10.0202m 
  275.85729m  399.9999m  125.1223n  390.1212m    9.8788m 
  275.95729m  399.9999m  124.2155n  390.2627m    9.7374m 
  276.05729m  399.9999m  123.3166n  390.4041m    9.5960m 
  276.15729m  399.9999m  122.4253n  390.5455m    9.4546m 
  276.25729m  399.9999m  121.5418n  390.6869m    9.3131m 
  276.35729m  399.9999m  120.6658n  390.8283m    9.1717m 
  276.45729m  399.9999m  119.7973n  390.9698m    9.0303m 
  276.55729m  399.9999m  118.9362n  391.1112m    8.8889m 
  276.65729m  399.9999m  118.0826n  391.2526m    8.7475m 
  276.75729m  399.9999m  117.2362n  391.3940m    8.6060m 
  276.85729m  399.9999m  116.3971n  391.5354m    8.4646m 
  276.95729m  399.9999m  115.5651n  391.6769m    8.3232m 
  277.05729m  399.9999m  114.7403n  391.8183m    8.1818m 
  277.15729m  399.9999m  113.9225n  391.9597m    8.0403m 
  277.25729m  399.9999m  113.1116n  392.1011m    7.8989m 
  277.35729m  399.9999m  112.3077n  392.2425m    7.7575m 
  277.45729m  399.9999m  111.5106n  392.3840m    7.6161m 
  277.55729m  399.9999m  110.7203n  392.5254m    7.4747m 
  277.65729m  399.9999m  109.9367n  392.6668m    7.3332m 
  277.75729m  399.9999m  109.1598n  392.8082m    7.1918m 
  277.85729m  399.9999m  108.3895n  392.9497m    7.0504m 
  277.95729m  399.9999m  107.6257n  393.0911m    6.9090m 
  278.05729m  399.9999m  106.8684n  393.2325m    6.7676m 
  278.15729m  399.9999m  106.1175n  393.3739m    6.6261m 
  278.25729m  399.9999m  105.3729n  393.5153m    6.4847m 
  278.35729m  399.9999m  104.6347n  393.6568m    6.3433m 
  278.45729m  399.9999m  103.9026n  393.7982m    6.2019m 
  278.55729m  399.9999m  103.1768n  393.9396m    6.0605m 
  278.65729m  399.9999m  102.4571n  394.0810m    5.9190m 
  278.75729m  399.9999m  101.7435n  394.2224m    5.7776m 
  278.85729m  399.9999m  101.0358n  394.3639m    5.6362m 
  278.95729m  399.9999m  100.3342n  394.5053m    5.4948m 
  279.05729m  399.9999m   99.6384n  394.6467m    5.3533m 
  279.15729m  399.9999m   98.9485n  394.7881m    5.2119m 
  279.25729m  399.9999m   98.2644n  394.9295m    5.0705m 
  279.35729m  399.9999m   97.5860n  395.0710m    4.9291m 
  279.45729m  399.9999m   96.9133n  395.2124m    4.7877m 
  279.55729m  399.9999m   96.2463n  395.3538m    4.6462m 
  279.65729m  399.9999m   95.5848n  395.4952m    4.5048m 
  279.75729m  399.9999m   94.9289n  395.6366m    4.3634m 
  279.85729m  399.9999m   94.2784n  395.7781m    4.2220m 
  279.95729m  400.0000m   93.6334n  395.9195m    4.0806m 
  280.05729m  400.0000m   92.9938n  396.0609m    3.9391m 
  280.15729m  400.0000m   92.3595n  396.2023m    3.7977m 
  280.25729m  400.0000m   91.7305n  396.3437m    3.6563m 
  280.35729m  400.0000m   91.1067n  396.4852m    3.5149m 
  280.45729m  400.0000m   90.4882n  396.6266m    3.3735m 
  280.55729m  400.0000m   89.8747n  396.7680m    3.2320m 
  280.65729m  400.0000m   89.2664n  396.9094m    3.0906m 
  280.75729m  400.0000m   88.6631n  397.0509m    2.9492m 
  280.85729m  400.0000m   88.0649n  397.1923m    2.8078m 
  280.95729m  400.0000m   87.4716n  397.3337m    2.6663m 
  281.05729m  400.0000m   86.8832n  397.4751m    2.5249m 
  281.15729m  400.0000m   86.2996n  397.6165m    2.3835m 
  281.25729m  400.0000m   85.7209n  397.7580m    2.2421m 
  281.35729m  400.0000m   85.1470n  397.8994m    2.1007m 
  281.45729m  400.0000m   84.5779n  398.0408m    1.9592m 
  281.55729m  400.0000m   84.0134n  398.1822m    1.8178m 
  281.65729m  400.0000m   83.4536n  398.3236m    1.6764m 
  281.75729m  400.0000m   82.8983n  398.4651m    1.5350m 
  281.85729m  400.0000m   82.3477n  398.6065m    1.3936m 
  281.95729m  400.0000m   81.8016n  398.7479m    1.2521m 
  282.05729m  400.0000m   81.2600n  398.8893m    1.1107m 
  282.15729m  400.0000m   80.7228n  399.0307m  969.2935u 
  282.25729m  400.0000m   80.1900n  399.1722m  827.8724u 
  282.35729m  400.0000m   79.6616n  399.3136m  686.4513u 
  282.45729m  400.0000m   79.1376n  399.4550m  545.0302u 
  282.55729m  400.0000m   78.6178n  399.5964m  403.6091u 
  282.65729m  400.0000m   78.1023n  399.7378m  262.1880u 
  282.75729m  400.0000m   77.5910n  399.8793m  120.7669u 
y
 max_1= 238.6185m    at=-145.5427m
             from=-282.8427m    to= 282.7573m
 max_2= 238.6186m    at= 145.5573m
             from=-282.8427m    to= 282.7573m
 snm= 168.7288m
 ******  
 .title noise margin in hold operation

 ****** operating point information tnom=  25.000 temp=  25.000 ******
 ****** operating point status is all       simulation time is     0.     
    node    =voltage      node    =voltage      node    =voltage

 +0:bl      = 400.0000m 0:blb     = 400.0000m 0:gl      = 213.5680m
 +0:gr      = 213.5680m 0:q       = 213.5680m 0:qb      = 213.5680m
 +0:u       =   0.      0:v1      = 302.0308m 0:v2      = 302.0308m
 +0:vdd     = 400.0000m 0:wl      =   0.      0:x       = 361.1525m


 **** voltage sources

 subckt                                   
 element  0:vu       0:vvdd     0:vwl     
  volts      0.       400.0000m    0.     
  current    0.        -6.1796n  163.5331f
  power      0.         2.4718n    0.     

     total voltage source power dissipation=    2.4718n       watts



 **** voltage-controlled voltage sources


 subckt                                              
 element  0:eli      0:ev1      0:eri      0:ev2     
  volts    213.5680m  302.0308m  213.5680m  302.0308m
  current   -7.1021f    0.        -7.1021f    0.     





 **** mosfets


 subckt                                                                    
 element  0:mpr      0:mnr      0:mpl      0:mnl      0:mnpr     0:mnpl    
 model    0:pmos_sra 0:nmos_sra 0:pmos_sra 0:nmos_sra 0:nmos_sra 0:nmos_sra
 region   Subth      Subth      Subth      Subth      Cutoff     Cutoff    
  id        -3.0898n    3.0898n   -3.0898n    3.0898n    1.7919f    1.7919f
  ibs        0.         0.         0.         0.         0.         0.     
  ibd        0.         0.         0.         0.         0.         0.     
  vgs     -186.4320m  213.5680m -186.4320m  213.5680m -213.5680m -213.5680m
  vds     -186.4320m  213.5680m -186.4320m  213.5680m  186.4320m  186.4320m
  vbs      -38.8475m  361.1525m  -38.8475m  361.1525m  147.5845m  147.5845m
  vth     -337.1424m  409.3382m -337.1424m  409.3382m  409.4772m  409.4772m
  vdsat    -73.1055m   70.7013m  -73.1055m   70.7013m   70.6690m   70.6690m
  vod      150.7104m -195.7702m  150.7104m -195.7702m -623.0453m -623.0453m
  beta       1.6413m    4.3473m    1.6413m    4.3473m    4.3473m    4.3473m
  gam eff    0.         0.         0.         0.         0.         0.     
  gm       118.1365n  117.5177n  118.1365n  117.5177n  2.660e-19  2.660e-19
  gds        3.1837n    2.4457n    3.1837n    2.4457n  811.4619a  811.4619a
  gmb       35.6715f   47.5023f   35.6715f   47.5023f  2.216e-20  2.216e-20
  cdtot     10.2221a   20.4450a   10.2221a   20.4450a   20.4450a   20.4450a
  cgtot     20.5973a   40.9477a   20.5973a   40.9477a   40.8900a   40.8900a
  cstot     10.3237a   20.4843a   10.3237a   20.4843a   20.4450a   20.4450a
  cbtot      0.         0.         0.         0.         0.         0.     
  cgs       10.3766a   20.5030a   10.3766a   20.5030a   20.4450a   20.4450a
  cgd       10.2207a   20.4448a   10.2207a   20.4448a   20.4450a   20.4450a




          ***** job concluded
 ******  
 .title noise margin in hold operation

 ****** job statistics summary tnom=  25.000 temp=  25.000 ******

  ******  Circuit Statistics  ******
  # nodes       =      13 # elements   =      15
  # resistors   =       0 # capacitors =       2 # inductors   =       0
  # mutual_inds =       0 # vccs       =       0 # vcvs        =       4
  # cccs        =       0 # ccvs       =       0 # volt_srcs   =       3
  # curr_srcs   =       0 # diodes     =       0 # bjts        =       0
  # jfets       =       0 # mosfets    =       6 # U elements  =       0
  # T elements  =       0 # W elements =       0 # B elements  =       0
  # S elements  =       0 # P elements =       0 # va device   =       0
  # vector_srcs =       0 # N elements =       0


  ******  Runtime Statistics (seconds)  ******

  analysis           time    # points   tot. iter  conv.iter
  op point           0.02           1           8
  dc sweep           0.46        5657       16976
  readin             0.00
  errchk             0.00
  setup              0.00
  output             0.00


           peak memory used        406.95 megabytes
           total cpu time            0.52 seconds
           total elapsed time        0.53 seconds
           job started at     23:02:14 03/23/2025
           job ended   at     23:02:17 03/23/2025
           job total runtime         3.08 seconds


 lic: Release hspice token(s) 
 lic: total license checkout elapse time:        0.20(s)
