 ****** HSPICE -- Q-2020.03-SP2-2 linux64 (Nov  1 2020) ******                  
  Copyright (c) 1986 - 2025 by Synopsys, Inc. All Rights Reserved.              
  This software and the associated documentation are proprietary
  to Synopsys, Inc. This software may only be used in accordance
  with the terms and conditions of a written license agreement with
  Synopsys, Inc. All other use, reproduction, or distribution of
  this software is strictly prohibited.
  Input File: SRAM_WNM_TT.sp                                                    
  Command line options: /RAID2/cad/synopsys/hspice/2020.03-sp2-2/hspice/linux64/hspice -i SRAM_WNM_TT.sp -o SRAM_WNM_TT.lis
  Start time: Wed Mar 19 21:42:18 2025
 lic:  
 lic: FLEXlm: SDK_12.6 
 lic: USER:   es25MCS042           HOSTNAME: ee28 
 lic: HOSTID: "d85ed3efc19a"       PID:      72274 
 lic: Using FLEXlm license file: 
 lic: 26585@lshc 
 lic: Checkout 1 hspice 
 lic: License/Maintenance for hspice will expire on 14-may-2025/2024.09 
 lic: 225(in_use)/1100(total) FLOATING license(s) on SERVER 26585@lshc 
 lic:   
  
      
             
 Warning:'Floating bulk' occurs 1 times
 Summary of floating bulk:
 -----------------------
 |Node      |Device    |
 |----------+----------|
 |x         |mpr       |
 -----------------------
              
 **info** set option symb=1 internally to help for convergence.
 *****************************************************************
 ******  option summary
 ******
 runlvl  = 3         bypass  = 2.0000    
 ******
 .title write noise margin

 ****** dc transfer curves tnom=  25.000 temp=  25.000 ******
x

 vnoise       voltage    voltage   
             q          qb         
    0.        252.4796m  700.0000m 
  100.00000u  252.3245m  700.0000m 
  200.00000u  252.1695m  700.0000m 
  300.00000u  252.0144m  700.0000m 
  400.00000u  251.8594m  700.0000m 
  500.00000u  251.7045m  700.0000m 
  600.00000u  251.5496m  700.0000m 
  700.00000u  251.3947m  700.0000m 
  800.00000u  251.2399m  700.0000m 
  900.00000u  251.0851m  700.0000m 
    1.00000m  250.9303m  700.0000m 
    1.10000m  250.7756m  700.0000m 
    1.20000m  250.6209m  700.0000m 
    1.30000m  250.4663m  700.0000m 
    1.40000m  250.3117m  700.0000m 
    1.50000m  250.1572m  700.0000m 
    1.60000m  250.0027m  700.0000m 
    1.70000m  249.8482m  700.0000m 
    1.80000m  249.6938m  700.0000m 
    1.90000m  249.5394m  700.0000m 
    2.00000m  249.3850m  700.0000m 
    2.10000m  249.2308m  700.0000m 
    2.20000m  249.0765m  700.0000m 
    2.30000m  248.9223m  700.0000m 
    2.40000m  248.7681m  700.0000m 
    2.50000m  248.6140m  700.0000m 
    2.60000m  248.4599m  700.0000m 
    2.70000m  248.3059m  700.0000m 
    2.80000m  248.1519m  700.0000m 
    2.90000m  247.9979m  700.0000m 
    3.00000m  247.8440m  700.0000m 
    3.10000m  247.6902m  700.0000m 
    3.20000m  247.5364m  700.0000m 
    3.30000m  247.3826m  700.0000m 
    3.40000m  247.2289m  700.0000m 
    3.50000m  247.0752m  700.0000m 
    3.60000m  246.9215m  700.0000m 
    3.70000m  246.7679m  700.0000m 
    3.80000m  246.6144m  700.0000m 
    3.90000m  246.4609m  700.0000m 
    4.00000m  246.3074m  700.0000m 
    4.10000m  246.1540m  700.0000m 
    4.20000m  246.0007m  700.0000m 
    4.30000m  245.8473m  700.0000m 
    4.40000m  245.6941m  700.0000m 
    4.50000m  245.5408m  700.0000m 
    4.60000m  245.3877m  700.0000m 
    4.70000m  245.2345m  700.0000m 
    4.80000m  245.0815m  700.0000m 
    4.90000m  244.9284m  700.0000m 
    5.00000m  244.7754m  700.0000m 
    5.10000m  244.6225m  700.0000m 
    5.20000m  244.4696m  700.0000m 
    5.30000m  244.3167m  700.0000m 
    5.40000m  244.1639m  700.0000m 
    5.50000m  244.0112m  700.0000m 
    5.60000m  243.8585m  700.0000m 
    5.70000m  243.7058m  700.0000m 
    5.80000m  243.5532m  700.0000m 
    5.90000m  243.4007m  700.0000m 
    6.00000m  243.2482m  700.0000m 
    6.10000m  243.0957m  700.0000m 
    6.20000m  242.9433m  700.0000m 
    6.30000m  242.7909m  700.0000m 
    6.40000m  242.6386m  700.0000m 
    6.50000m  242.4864m  700.0000m 
    6.60000m  242.3342m  700.0000m 
    6.70000m  242.1820m  700.0000m 
    6.80000m  242.0299m  700.0000m 
    6.90000m  241.8778m  700.0000m 
    7.00000m  241.7258m  700.0000m 
    7.10000m  241.5738m  700.0000m 
    7.20000m  241.4219m  700.0000m 
    7.30000m  241.2701m  700.0000m 
    7.40000m  241.1183m  700.0000m 
    7.50000m  240.9665m  700.0000m 
    7.60000m  240.8148m  700.0000m 
    7.70000m  240.6632m  700.0000m 
    7.80000m  240.5116m  700.0000m 
    7.90000m  240.3600m  700.0000m 
    8.00000m  240.2085m  700.0000m 
    8.10000m  240.0571m  700.0000m 
    8.20000m  239.9057m  700.0000m 
    8.30000m  239.7543m  700.0000m 
    8.40000m  239.6030m  700.0000m 
    8.50000m  239.4518m  700.0000m 
    8.60000m  239.3006m  700.0000m 
    8.70000m  239.1495m  700.0000m 
    8.80000m  238.9984m  700.0000m 
    8.90000m  238.8474m  700.0000m 
    9.00000m  238.6964m  700.0000m 
    9.10000m  238.5455m  700.0000m 
    9.20000m  238.3946m  700.0000m 
    9.30000m  238.2438m  700.0000m 
    9.40000m  238.0930m  700.0000m 
    9.50000m  237.9423m  700.0000m 
    9.60000m  237.7917m  700.0000m 
    9.70000m  237.6411m  700.0000m 
    9.80000m  237.4905m  700.0000m 
    9.90000m  237.3400m  700.0000m 
   10.00000m  237.1896m  700.0000m 
   10.10000m  237.0392m  700.0000m 
   10.20000m  236.8889m  700.0000m 
   10.30000m  236.7386m  700.0000m 
   10.40000m  236.5884m  700.0000m 
   10.50000m  236.4383m  700.0000m 
   10.60000m  236.2882m  700.0000m 
   10.70000m  236.1381m  700.0000m 
   10.80000m  235.9881m  700.0000m 
   10.90000m  235.8382m  700.0000m 
   11.00000m  235.6883m  700.0000m 
   11.10000m  235.5385m  700.0000m 
   11.20000m  235.3887m  700.0000m 
   11.30000m  235.2390m  700.0000m 
   11.40000m  235.0893m  700.0000m 
   11.50000m  234.9397m  700.0000m 
   11.60000m  234.7902m  700.0000m 
   11.70000m  234.6407m  700.0000m 
   11.80000m  234.4912m  700.0000m 
   11.90000m  234.3419m  700.0000m 
   12.00000m  234.1925m  700.0000m 
   12.10000m  234.0433m  700.0000m 
   12.20000m  233.8941m  700.0000m 
   12.30000m  233.7449m  700.0000m 
   12.40000m  233.5958m  700.0000m 
   12.50000m  233.4468m  700.0000m 
   12.60000m  233.2978m  700.0000m 
   12.70000m  233.1489m  700.0000m 
   12.80000m  233.0000m  700.0000m 
   12.90000m  232.8512m  700.0000m 
   13.00000m  232.7025m  700.0000m 
   13.10000m  232.5538m  700.0000m 
   13.20000m  232.4052m  700.0000m 
   13.30000m  232.2566m  700.0000m 
   13.40000m  232.1081m  700.0000m 
   13.50000m  231.9596m  700.0000m 
   13.60000m  231.8113m  700.0000m 
   13.70000m  231.6629m  700.0000m 
   13.80000m  231.5146m  700.0000m 
   13.90000m  231.3664m  700.0000m 
   14.00000m  231.2183m  700.0000m 
   14.10000m  231.0702m  700.0000m 
   14.20000m  230.9221m  700.0000m 
   14.30000m  230.7741m  700.0000m 
   14.40000m  230.6262m  700.0000m 
   14.50000m  230.4784m  700.0000m 
   14.60000m  230.3306m  700.0000m 
   14.70000m  230.1828m  700.0000m 
   14.80000m  230.0351m  700.0000m 
   14.90000m  229.8875m  700.0000m 
   15.00000m  229.7399m  700.0000m 
   15.10000m  229.5924m  700.0000m 
   15.20000m  229.4450m  700.0000m 
   15.30000m  229.2976m  700.0000m 
   15.40000m  229.1503m  700.0000m 
   15.50000m  229.0030m  700.0000m 
   15.60000m  228.8558m  700.0000m 
   15.70000m  228.7087m  700.0000m 
   15.80000m  228.5616m  700.0000m 
   15.90000m  228.4146m  700.0000m 
   16.00000m  228.2676m  700.0000m 
   16.10000m  228.1208m  700.0000m 
   16.20000m  227.9739m  700.0000m 
   16.30000m  227.8271m  700.0000m 
   16.40000m  227.6804m  700.0000m 
   16.50000m  227.5338m  700.0000m 
   16.60000m  227.3872m  700.0000m 
   16.70000m  227.2407m  700.0000m 
   16.80000m  227.0942m  700.0000m 
   16.90000m  226.9478m  700.0000m 
   17.00000m  226.8015m  700.0000m 
   17.10000m  226.6552m  700.0000m 
   17.20000m  226.5090m  700.0000m 
   17.30000m  226.3628m  700.0000m 
   17.40000m  226.2167m  700.0000m 
   17.50000m  226.0707m  700.0000m 
   17.60000m  225.9247m  700.0000m 
   17.70000m  225.7788m  700.0000m 
   17.80000m  225.6330m  700.0000m 
   17.90000m  225.4872m  700.0000m 
   18.00000m  225.3415m  700.0000m 
   18.10000m  225.1958m  700.0000m 
   18.20000m  225.0502m  700.0000m 
   18.30000m  224.9047m  700.0000m 
   18.40000m  224.7592m  700.0000m 
   18.50000m  224.6138m  700.0000m 
   18.60000m  224.4685m  700.0000m 
   18.70000m  224.3232m  700.0000m 
   18.80000m  224.1780m  700.0000m 
   18.90000m  224.0328m  700.0000m 
   19.00000m  223.8877m  700.0000m 
   19.10000m  223.7427m  700.0000m 
   19.20000m  223.5978m  700.0000m 
   19.30000m  223.4529m  700.0000m 
   19.40000m  223.3080m  700.0000m 
   19.50000m  223.1633m  700.0000m 
   19.60000m  223.0186m  700.0000m 
   19.70000m  222.8739m  700.0000m 
   19.80000m  222.7293m  700.0000m 
   19.90000m  222.5848m  700.0000m 
   20.00000m  222.4404m  700.0000m 
   20.10000m  222.2960m  700.0000m 
   20.20000m  222.1517m  700.0000m 
   20.30000m  222.0074m  700.0000m 
   20.40000m  221.8632m  700.0000m 
   20.50000m  221.7191m  700.0000m 
   20.60000m  221.5751m  700.0000m 
   20.70000m  221.4311m  700.0000m 
   20.80000m  221.2871m  700.0000m 
   20.90000m  221.1433m  700.0000m 
   21.00000m  220.9995m  700.0000m 
   21.10000m  220.8557m  700.0000m 
   21.20000m  220.7121m  700.0000m 
   21.30000m  220.5684m  700.0000m 
   21.40000m  220.4249m  700.0000m 
   21.50000m  220.2814m  700.0000m 
   21.60000m  220.1380m  700.0000m 
   21.70000m  219.9947m  700.0000m 
   21.80000m  219.8514m  700.0000m 
   21.90000m  219.7082m  700.0000m 
   22.00000m  219.5650m  700.0000m 
   22.10000m  219.4219m  700.0000m 
   22.20000m  219.2789m  700.0000m 
   22.30000m  219.1360m  700.0000m 
   22.40000m  218.9931m  700.0000m 
   22.50000m  218.8503m  700.0000m 
   22.60000m  218.7075m  700.0000m 
   22.70000m  218.5648m  700.0000m 
   22.80000m  218.4222m  700.0000m 
   22.90000m  218.2797m  700.0000m 
   23.00000m  218.1372m  700.0000m 
   23.10000m  217.9947m  700.0000m 
   23.20000m  217.8524m  700.0000m 
   23.30000m  217.7101m  700.0000m 
   23.40000m  217.5679m  700.0000m 
   23.50000m  217.4257m  700.0000m 
   23.60000m  217.2836m  700.0000m 
   23.70000m  217.1416m  700.0000m 
   23.80000m  216.9996m  700.0000m 
   23.90000m  216.8577m  700.0000m 
   24.00000m  216.7159m  700.0000m 
   24.10000m  216.5742m  700.0000m 
   24.20000m  216.4325m  700.0000m 
   24.30000m  216.2908m  700.0000m 
   24.40000m  216.1493m  700.0000m 
   24.50000m  216.0078m  700.0000m 
   24.60000m  215.8664m  700.0000m 
   24.70000m  215.7250m  700.0000m 
   24.80000m  215.5837m  700.0000m 
   24.90000m  215.4425m  700.0000m 
   25.00000m  215.3013m  700.0000m 
   25.10000m  215.1603m  700.0000m 
   25.20000m  215.0192m  700.0000m 
   25.30000m  214.8783m  700.0000m 
   25.40000m  214.7374m  700.0000m 
   25.50000m  214.5966m  700.0000m 
   25.60000m  214.4558m  700.0000m 
   25.70000m  214.3151m  700.0000m 
   25.80000m  214.1745m  700.0000m 
   25.90000m  214.0340m  700.0000m 
   26.00000m  213.8935m  700.0000m 
   26.10000m  213.7531m  700.0000m 
   26.20000m  213.6127m  700.0000m 
   26.30000m  213.4725m  700.0000m 
   26.40000m  213.3322m  700.0000m 
   26.50000m  213.1921m  700.0000m 
   26.60000m  213.0520m  700.0000m 
   26.70000m  212.9120m  700.0000m 
   26.80000m  212.7721m  700.0000m 
   26.90000m  212.6322m  700.0000m 
   27.00000m  212.4924m  700.0000m 
   27.10000m  212.3527m  700.0000m 
   27.20000m  212.2130m  700.0000m 
   27.30000m  212.0734m  700.0000m 
   27.40000m  211.9339m  700.0000m 
   27.50000m  211.7944m  700.0000m 
   27.60000m  211.6550m  700.0000m 
   27.70000m  211.5157m  700.0000m 
   27.80000m  211.3764m  700.0000m 
   27.90000m  211.2373m  700.0000m 
   28.00000m  211.0981m  700.0000m 
   28.10000m  210.9591m  700.0000m 
   28.20000m  210.8201m  700.0000m 
   28.30000m  210.6812m  700.0000m 
   28.40000m  210.5423m  700.0000m 
   28.50000m  210.4036m  700.0000m 
   28.60000m  210.2648m  700.0000m 
   28.70000m  210.1262m  700.0000m 
   28.80000m  209.9876m  700.0000m 
   28.90000m  209.8491m  700.0000m 
   29.00000m  209.7107m  700.0000m 
   29.10000m  209.5723m  700.0000m 
   29.20000m  209.4340m  700.0000m 
   29.30000m  209.2958m  700.0000m 
   29.40000m  209.1577m  700.0000m 
   29.50000m  209.0196m  700.0000m 
   29.60000m  208.8815m  700.0000m 
   29.70000m  208.7436m  700.0000m 
   29.80000m  208.6057m  700.0000m 
   29.90000m  208.4679m  700.0000m 
   30.00000m  208.3302m  700.0000m 
   30.10000m  208.1925m  700.0000m 
   30.20000m  208.0549m  700.0000m 
   30.30000m  207.9173m  700.0000m 
   30.40000m  207.7799m  700.0000m 
   30.50000m  207.6425m  700.0000m 
   30.60000m  207.5051m  700.0000m 
   30.70000m  207.3679m  700.0000m 
   30.80000m  207.2307m  700.0000m 
   30.90000m  207.0936m  700.0000m 
   31.00000m  206.9565m  700.0000m 
   31.10000m  206.8195m  700.0000m 
   31.20000m  206.6826m  700.0000m 
   31.30000m  206.5458m  700.0000m 
   31.40000m  206.4090m  700.0000m 
   31.50000m  206.2723m  700.0000m 
   31.60000m  206.1357m  700.0000m 
   31.70000m  205.9991m  700.0000m 
   31.80000m  205.8626m  700.0000m 
   31.90000m  205.7262m  700.0000m 
   32.00000m  205.5898m  700.0000m 
   32.10000m  205.4535m  700.0000m 
   32.20000m  205.3173m  700.0000m 
   32.30000m  205.1812m  700.0000m 
   32.40000m  205.0451m  700.0000m 
   32.50000m  204.9091m  700.0000m 
   32.60000m  204.7731m  700.0000m 
   32.70000m  204.6373m  700.0000m 
   32.80000m  204.5015m  700.0000m 
   32.90000m  204.3657m  700.0000m 
   33.00000m  204.2301m  700.0000m 
   33.10000m  204.0945m  700.0000m 
   33.20000m  203.9589m  700.0000m 
   33.30000m  203.8235m  700.0000m 
   33.40000m  203.6881m  700.0000m 
   33.50000m  203.5528m  700.0000m 
   33.60000m  203.4176m  700.0000m 
   33.70000m  203.2824m  700.0000m 
   33.80000m  203.1473m  700.0000m 
   33.90000m  203.0123m  700.0000m 
   34.00000m  202.8773m  700.0000m 
   34.10000m  202.7424m  700.0000m 
   34.20000m  202.6076m  700.0000m 
   34.30000m  202.4728m  700.0000m 
   34.40000m  202.3381m  700.0000m 
   34.50000m  202.2035m  700.0000m 
   34.60000m  202.0690m  700.0000m 
   34.70000m  201.9345m  700.0000m 
   34.80000m  201.8001m  700.0000m 
   34.90000m  201.6658m  700.0000m 
   35.00000m  201.5315m  700.0000m 
   35.10000m  201.3973m  700.0000m 
   35.20000m  201.2632m  700.0000m 
   35.30000m  201.1291m  700.0000m 
   35.40000m  200.9952m  700.0000m 
   35.50000m  200.8613m  700.0000m 
   35.60000m  200.7274m  700.0000m 
   35.70000m  200.5936m  700.0000m 
   35.80000m  200.4599m  700.0000m 
   35.90000m  200.3263m  700.0000m 
   36.00000m  200.1927m  700.0000m 
   36.10000m  200.0593m  700.0000m 
   36.20000m  199.9258m  700.0000m 
   36.30000m  199.7925m  700.0000m 
   36.40000m  199.6592m  700.0000m 
   36.50000m  199.5260m  700.0000m 
   36.60000m  199.3929m  700.0000m 
   36.70000m  199.2598m  700.0000m 
   36.80000m  199.1268m  700.0000m 
   36.90000m  198.9939m  700.0000m 
   37.00000m  198.8610m  700.0000m 
   37.10000m  198.7282m  700.0000m 
   37.20000m  198.5955m  700.0000m 
   37.30000m  198.4628m  700.0000m 
   37.40000m  198.3303m  700.0000m 
   37.50000m  198.1978m  700.0000m 
   37.60000m  198.0653m  700.0000m 
   37.70000m  197.9330m  700.0000m 
   37.80000m  197.8007m  700.0000m 
   37.90000m  197.6684m  700.0000m 
   38.00000m  197.5363m  700.0000m 
   38.10000m  197.4042m  700.0000m 
   38.20000m  197.2722m  700.0000m 
   38.30000m  197.1402m  700.0000m 
   38.40000m  197.0084m  700.0000m 
   38.50000m  196.8766m  700.0000m 
   38.60000m  196.7448m  700.0000m 
   38.70000m  196.6132m  700.0000m 
   38.80000m  196.4816m  700.0000m 
   38.90000m  196.3500m  700.0000m 
   39.00000m  196.2186m  700.0000m 
   39.10000m  196.0872m  700.0000m 
   39.20000m  195.9559m  700.0000m 
   39.30000m  195.8247m  700.0000m 
   39.40000m  195.6935m  700.0000m 
   39.50000m  195.5624m  700.0000m 
   39.60000m  195.4314m  700.0000m 
   39.70000m  195.3004m  700.0000m 
   39.80000m  195.1695m  700.0000m 
   39.90000m  195.0387m  700.0000m 
   40.00000m  194.9079m  700.0000m 
   40.10000m  194.7773m  700.0000m 
   40.20000m  194.6466m  700.0000m 
   40.30000m  194.5161m  700.0000m 
   40.40000m  194.3856m  700.0000m 
   40.50000m  194.2552m  700.0000m 
   40.60000m  194.1249m  700.0000m 
   40.70000m  193.9947m  700.0000m 
   40.80000m  193.8645m  700.0000m 
   40.90000m  193.7344m  700.0000m 
   41.00000m  193.6043m  700.0000m 
   41.10000m  193.4743m  700.0000m 
   41.20000m  193.3444m  700.0000m 
   41.30000m  193.2146m  700.0000m 
   41.40000m  193.0848m  700.0000m 
   41.50000m  192.9551m  700.0000m 
   41.60000m  192.8255m  700.0000m 
   41.70000m  192.6960m  700.0000m 
   41.80000m  192.5665m  700.0000m 
   41.90000m  192.4371m  700.0000m 
   42.00000m  192.3077m  700.0000m 
   42.10000m  192.1785m  700.0000m 
   42.20000m  192.0493m  700.0000m 
   42.30000m  191.9201m  700.0000m 
   42.40000m  191.7911m  700.0000m 
   42.50000m  191.6621m  700.0000m 
   42.60000m  191.5332m  700.0000m 
   42.70000m  191.4043m  700.0000m 
   42.80000m  191.2755m  700.0000m 
   42.90000m  191.1468m  700.0000m 
   43.00000m  191.0182m  700.0000m 
   43.10000m  190.8896m  700.0000m 
   43.20000m  190.7611m  700.0000m 
   43.30000m  190.6327m  700.0000m 
   43.40000m  190.5043m  700.0000m 
   43.50000m  190.3760m  700.0000m 
   43.60000m  190.2478m  700.0000m 
   43.70000m  190.1197m  700.0000m 
   43.80000m  189.9916m  700.0000m 
   43.90000m  189.8636m  700.0000m 
   44.00000m  189.7356m  700.0000m 
   44.10000m  189.6078m  700.0000m 
   44.20000m  189.4800m  700.0000m 
   44.30000m  189.3522m  700.0000m 
   44.40000m  189.2246m  700.0000m 
   44.50000m  189.0970m  700.0000m 
   44.60000m  188.9695m  700.0000m 
   44.70000m  188.8420m  700.0000m 
   44.80000m  188.7147m  700.0000m 
   44.90000m  188.5874m  700.0000m 
   45.00000m  188.4601m  700.0000m 
   45.10000m  188.3330m  700.0000m 
   45.20000m  188.2059m  700.0000m 
   45.30000m  188.0788m  700.0000m 
   45.40000m  187.9519m  700.0000m 
   45.50000m  187.8250m  700.0000m 
   45.60000m  187.6982m  700.0000m 
   45.70000m  187.5714m  700.0000m 
   45.80000m  187.4447m  700.0000m 
   45.90000m  187.3181m  700.0000m 
   46.00000m  187.1916m  700.0000m 
   46.10000m  187.0651m  700.0000m 
   46.20000m  186.9387m  700.0000m 
   46.30000m  186.8124m  700.0000m 
   46.40000m  186.6862m  700.0000m 
   46.50000m  186.5600m  700.0000m 
   46.60000m  186.4339m  700.0000m 
   46.70000m  186.3078m  700.0000m 
   46.80000m  186.1818m  700.0000m 
   46.90000m  186.0559m  700.0000m 
   47.00000m  185.9301m  700.0000m 
   47.10000m  185.8043m  700.0000m 
   47.20000m  185.6786m  700.0000m 
   47.30000m  185.5530m  700.0000m 
   47.40000m  185.4274m  700.0000m 
   47.50000m  185.3019m  700.0000m 
   47.60000m  185.1765m  700.0000m 
   47.70000m  185.0512m  700.0000m 
   47.80000m  184.9259m  700.0000m 
   47.90000m  184.8007m  700.0000m 
   48.00000m  184.6755m  700.0000m 
   48.10000m  184.5505m  700.0000m 
   48.20000m  184.4255m  700.0000m 
   48.30000m  184.3005m  700.0000m 
   48.40000m  184.1757m  700.0000m 
   48.50000m  184.0509m  700.0000m 
   48.60000m  183.9262m  700.0000m 
   48.70000m  183.8015m  700.0000m 
   48.80000m  183.6769m  700.0000m 
   48.90000m  183.5524m  700.0000m 
   49.00000m  183.4280m  700.0000m 
   49.10000m  183.3036m  700.0000m 
   49.20000m  183.1793m  700.0000m 
   49.30000m  183.0550m  700.0000m 
   49.40000m  182.9309m  700.0000m 
   49.50000m  182.8068m  700.0000m 
   49.60000m  182.6828m  700.0000m 
   49.70000m  182.5588m  700.0000m 
   49.80000m  182.4349m  700.0000m 
   49.90000m  182.3111m  700.0000m 
   50.00000m  182.1873m  700.0000m 
   50.10000m  182.0637m  700.0000m 
   50.20000m  181.9400m  700.0000m 
   50.30000m  181.8165m  700.0000m 
   50.40000m  181.6930m  700.0000m 
   50.50000m  181.5696m  700.0000m 
   50.60000m  181.4463m  700.0000m 
   50.70000m  181.3230m  700.0000m 
   50.80000m  181.1998m  700.0000m 
   50.90000m  181.0767m  700.0000m 
   51.00000m  180.9536m  700.0000m 
   51.10000m  180.8306m  700.0000m 
   51.20000m  180.7077m  700.0000m 
   51.30000m  180.5849m  700.0000m 
   51.40000m  180.4621m  700.0000m 
   51.50000m  180.3394m  700.0000m 
   51.60000m  180.2167m  700.0000m 
   51.70000m  180.0942m  700.0000m 
   51.80000m  179.9716m  700.0000m 
   51.90000m  179.8492m  700.0000m 
   52.00000m  179.7268m  700.0000m 
   52.10000m  179.6045m  700.0000m 
   52.20000m  179.4823m  699.9999m 
   52.30000m  179.3601m  699.9999m 
   52.40000m  179.2381m  699.9999m 
   52.50000m  179.1160m  699.9999m 
   52.60000m  178.9941m  699.9999m 
   52.70000m  178.8722m  699.9999m 
   52.80000m  178.7504m  699.9999m 
   52.90000m  178.6286m  699.9999m 
   53.00000m  178.5069m  699.9999m 
   53.10000m  178.3853m  699.9999m 
   53.20000m  178.2638m  699.9999m 
   53.30000m  178.1423m  699.9999m 
   53.40000m  178.0209m  699.9999m 
   53.50000m  177.8996m  699.9999m 
   53.60000m  177.7783m  699.9999m 
   53.70000m  177.6571m  699.9999m 
   53.80000m  177.5360m  699.9999m 
   53.90000m  177.4149m  699.9999m 
   54.00000m  177.2939m  699.9999m 
   54.10000m  177.1730m  699.9999m 
   54.20000m  177.0521m  699.9999m 
   54.30000m  176.9313m  699.9999m 
   54.40000m  176.8106m  699.9999m 
   54.50000m  176.6899m  699.9999m 
   54.60000m  176.5694m  699.9999m 
   54.70000m  176.4488m  699.9999m 
   54.80000m  176.3284m  699.9999m 
   54.90000m  176.2080m  699.9999m 
   55.00000m  176.0877m  699.9999m 
   55.10000m  175.9674m  699.9999m 
   55.20000m  175.8473m  699.9999m 
   55.30000m  175.7272m  699.9999m 
   55.40000m  175.6071m  699.9999m 
   55.50000m  175.4871m  699.9999m 
   55.60000m  175.3672m  699.9999m 
   55.70000m  175.2474m  699.9999m 
   55.80000m  175.1276m  699.9999m 
   55.90000m  175.0079m  699.9999m 
   56.00000m  174.8883m  699.9999m 
   56.10000m  174.7687m  699.9999m 
   56.20000m  174.6492m  699.9999m 
   56.30000m  174.5298m  699.9999m 
   56.40000m  174.4104m  699.9999m 
   56.50000m  174.2912m  699.9999m 
   56.60000m  174.1719m  699.9999m 
   56.70000m  174.0528m  699.9999m 
   56.80000m  173.9337m  699.9999m 
   56.90000m  173.8147m  699.9999m 
   57.00000m  173.6957m  699.9999m 
   57.10000m  173.5768m  699.9999m 
   57.20000m  173.4580m  699.9999m 
   57.30000m  173.3392m  699.9999m 
   57.40000m  173.2206m  699.9999m 
   57.50000m  173.1019m  699.9999m 
   57.60000m  172.9834m  699.9999m 
   57.70000m  172.8649m  699.9999m 
   57.80000m  172.7465m  699.9999m 
   57.90000m  172.6281m  699.9999m 
   58.00000m  172.5099m  699.9999m 
   58.10000m  172.3917m  699.9999m 
   58.20000m  172.2735m  699.9999m 
   58.30000m  172.1554m  699.9999m 
   58.40000m  172.0374m  699.9999m 
   58.50000m  171.9195m  699.9999m 
   58.60000m  171.8016m  699.9999m 
   58.70000m  171.6838m  699.9999m 
   58.80000m  171.5660m  699.9999m 
   58.90000m  171.4484m  699.9999m 
   59.00000m  171.3308m  699.9999m 
   59.10000m  171.2132m  699.9999m 
   59.20000m  171.0957m  699.9999m 
   59.30000m  170.9783m  699.9999m 
   59.40000m  170.8610m  699.9999m 
   59.50000m  170.7437m  699.9999m 
   59.60000m  170.6265m  699.9999m 
   59.70000m  170.5094m  699.9999m 
   59.80000m  170.3923m  699.9999m 
   59.90000m  170.2753m  699.9999m 
   60.00000m  170.1584m  699.9999m 
   60.10000m  170.0415m  699.9999m 
   60.20000m  169.9247m  699.9999m 
   60.30000m  169.8079m  699.9999m 
   60.40000m  169.6913m  699.9999m 
   60.50000m  169.5747m  699.9999m 
   60.60000m  169.4581m  699.9999m 
   60.70000m  169.3417m  699.9999m 
   60.80000m  169.2252m  699.9999m 
   60.90000m  169.1089m  699.9999m 
   61.00000m  168.9926m  699.9999m 
   61.10000m  168.8764m  699.9999m 
   61.20000m  168.7603m  699.9999m 
   61.30000m  168.6442m  699.9999m 
   61.40000m  168.5282m  699.9999m 
   61.50000m  168.4123m  699.9999m 
   61.60000m  168.2964m  699.9999m 
   61.70000m  168.1806m  699.9999m 
   61.80000m  168.0648m  699.9999m 
   61.90000m  167.9492m  699.9999m 
   62.00000m  167.8336m  699.9999m 
   62.10000m  167.7180m  699.9999m 
   62.20000m  167.6025m  699.9999m 
   62.30000m  167.4871m  699.9999m 
   62.40000m  167.3718m  699.9999m 
   62.50000m  167.2565m  699.9999m 
   62.60000m  167.1413m  699.9999m 
   62.70000m  167.0261m  699.9999m 
   62.80000m  166.9110m  699.9999m 
   62.90000m  166.7960m  699.9999m 
   63.00000m  166.6811m  699.9999m 
   63.10000m  166.5662m  699.9999m 
   63.20000m  166.4514m  699.9999m 
   63.30000m  166.3366m  699.9999m 
   63.40000m  166.2219m  699.9999m 
   63.50000m  166.1073m  699.9999m 
   63.60000m  165.9928m  699.9999m 
   63.70000m  165.8783m  699.9999m 
   63.80000m  165.7638m  699.9999m 
   63.90000m  165.6495m  699.9999m 
   64.00000m  165.5352m  699.9999m 
   64.10000m  165.4209m  699.9999m 
   64.20000m  165.3068m  699.9999m 
   64.30000m  165.1927m  699.9999m 
   64.40000m  165.0787m  699.9999m 
   64.50000m  164.9647m  699.9999m 
   64.60000m  164.8508m  699.9999m 
   64.70000m  164.7369m  699.9999m 
   64.80000m  164.6232m  699.9999m 
   64.90000m  164.5095m  699.9999m 
   65.00000m  164.3958m  699.9999m 
   65.10000m  164.2822m  699.9999m 
   65.20000m  164.1687m  699.9999m 
   65.30000m  164.0553m  699.9999m 
   65.40000m  163.9419m  699.9999m 
   65.50000m  163.8286m  699.9999m 
   65.60000m  163.7153m  699.9999m 
   65.70000m  163.6022m  699.9999m 
   65.80000m  163.4890m  699.9999m 
   65.90000m  163.3760m  699.9999m 
   66.00000m  163.2630m  699.9999m 
   66.10000m  163.1501m  699.9999m 
   66.20000m  163.0372m  699.9999m 
   66.30000m  162.9244m  699.9999m 
   66.40000m  162.8117m  699.9999m 
   66.50000m  162.6990m  699.9999m 
   66.60000m  162.5864m  699.9999m 
   66.70000m  162.4738m  699.9999m 
   66.80000m  162.3614m  699.9999m 
   66.90000m  162.2490m  699.9999m 
   67.00000m  162.1366m  699.9999m 
   67.10000m  162.0243m  699.9999m 
   67.20000m  161.9121m  699.9999m 
   67.30000m  161.8000m  699.9999m 
   67.40000m  161.6879m  699.9999m 
   67.50000m  161.5758m  699.9999m 
   67.60000m  161.4639m  699.9999m 
   67.70000m  161.3520m  699.9999m 
   67.80000m  161.2402m  699.9999m 
   67.90000m  161.1284m  699.9999m 
   68.00000m  161.0167m  699.9999m 
   68.10000m  160.9050m  699.9999m 
   68.20000m  160.7935m  699.9999m 
   68.30000m  160.6820m  699.9999m 
   68.40000m  160.5705m  699.9999m 
   68.50000m  160.4591m  699.9999m 
   68.60000m  160.3478m  699.9999m 
   68.70000m  160.2365m  699.9999m 
   68.80000m  160.1253m  699.9999m 
   68.90000m  160.0142m  699.9999m 
   69.00000m  159.9032m  699.9999m 
   69.10000m  159.7922m  699.9999m 
   69.20000m  159.6812m  699.9999m 
   69.30000m  159.5703m  699.9999m 
   69.40000m  159.4595m  699.9999m 
   69.50000m  159.3488m  699.9999m 
   69.60000m  159.2381m  699.9999m 
   69.70000m  159.1275m  699.9999m 
   69.80000m  159.0169m  699.9999m 
   69.90000m  158.9064m  699.9999m 
   70.00000m  158.7960m  699.9999m 
   70.10000m  158.6856m  699.9999m 
   70.20000m  158.5753m  699.9999m 
   70.30000m  158.4651m  699.9999m 
   70.40000m  158.3549m  699.9999m 
   70.50000m  158.2448m  699.9999m 
   70.60000m  158.1347m  699.9999m 
   70.70000m  158.0247m  699.9999m 
   70.80000m  157.9148m  699.9999m 
   70.90000m  157.8050m  699.9999m 
   71.00000m  157.6952m  699.9999m 
   71.10000m  157.5854m  699.9999m 
   71.20000m  157.4758m  699.9999m 
   71.30000m  157.3661m  699.9999m 
   71.40000m  157.2566m  699.9999m 
   71.50000m  157.1471m  699.9999m 
   71.60000m  157.0377m  699.9999m 
   71.70000m  156.9283m  699.9999m 
   71.80000m  156.8190m  699.9999m 
   71.90000m  156.7098m  699.9999m 
   72.00000m  156.6006m  699.9999m 
   72.10000m  156.4915m  699.9999m 
   72.20000m  156.3825m  699.9999m 
   72.30000m  156.2735m  699.9999m 
   72.40000m  156.1646m  699.9999m 
   72.50000m  156.0557m  699.9999m 
   72.60000m  155.9469m  699.9999m 
   72.70000m  155.8382m  699.9999m 
   72.80000m  155.7295m  699.9999m 
   72.90000m  155.6209m  699.9999m 
   73.00000m  155.5123m  699.9999m 
   73.10000m  155.4039m  699.9999m 
   73.20000m  155.2954m  699.9999m 
   73.30000m  155.1871m  699.9999m 
   73.40000m  155.0788m  699.9999m 
   73.50000m  154.9705m  699.9999m 
   73.60000m  154.8624m  699.9999m 
   73.70000m  154.7542m  699.9999m 
   73.80000m  154.6462m  699.9999m 
   73.90000m  154.5382m  699.9999m 
   74.00000m  154.4303m  699.9999m 
   74.10000m  154.3224m  699.9999m 
   74.20000m  154.2146m  699.9999m 
   74.30000m  154.1069m  699.9999m 
   74.40000m  153.9992m  699.9999m 
   74.50000m  153.8916m  699.9999m 
   74.60000m  153.7840m  699.9999m 
   74.70000m  153.6765m  699.9999m 
   74.80000m  153.5691m  699.9999m 
   74.90000m  153.4617m  699.9999m 
   75.00000m  153.3544m  699.9999m 
   75.10000m  153.2471m  699.9999m 
   75.20000m  153.1399m  699.9999m 
   75.30000m  153.0328m  699.9999m 
   75.40000m  152.9257m  699.9999m 
   75.50000m  152.8187m  699.9999m 
   75.60000m  152.7118m  699.9999m 
   75.70000m  152.6049m  699.9999m 
   75.80000m  152.4981m  699.9999m 
   75.90000m  152.3913m  699.9999m 
   76.00000m  152.2846m  699.9999m 
   76.10000m  152.1780m  699.9999m 
   76.20000m  152.0714m  699.9999m 
   76.30000m  151.9649m  699.9999m 
   76.40000m  151.8584m  699.9999m 
   76.50000m  151.7520m  699.9999m 
   76.60000m  151.6457m  699.9999m 
   76.70000m  151.5394m  699.9999m 
   76.80000m  151.4332m  699.9999m 
   76.90000m  151.3271m  699.9999m 
   77.00000m  151.2210m  699.9999m 
   77.10000m  151.1149m  699.9999m 
   77.20000m  151.0090m  699.9999m 
   77.30000m  150.9031m  699.9999m 
   77.40000m  150.7972m  699.9999m 
   77.50000m  150.6914m  699.9999m 
   77.60000m  150.5857m  699.9999m 
   77.70000m  150.4800m  699.9999m 
   77.80000m  150.3744m  699.9999m 
   77.90000m  150.2689m  699.9999m 
   78.00000m  150.1634m  699.9999m 
   78.10000m  150.0580m  699.9999m 
   78.20000m  149.9526m  699.9999m 
   78.30000m  149.8473m  699.9999m 
   78.40000m  149.7420m  699.9999m 
   78.50000m  149.6368m  699.9999m 
   78.60000m  149.5317m  699.9999m 
   78.70000m  149.4267m  699.9999m 
   78.80000m  149.3216m  699.9999m 
   78.90000m  149.2167m  699.9999m 
   79.00000m  149.1118m  699.9999m 
   79.10000m  149.0070m  699.9999m 
   79.20000m  148.9022m  699.9999m 
   79.30000m  148.7975m  699.9999m 
   79.40000m  148.6929m  699.9999m 
   79.50000m  148.5883m  699.9999m 
   79.60000m  148.4837m  699.9999m 
   79.70000m  148.3793m  699.9999m 
   79.80000m  148.2749m  699.9999m 
   79.90000m  148.1705m  699.9999m 
   80.00000m  148.0662m  699.9999m 
   80.10000m  147.9620m  699.9999m 
   80.20000m  147.8578m  699.9998m 
   80.30000m  147.7537m  699.9998m 
   80.40000m  147.6497m  699.9998m 
   80.50000m  147.5457m  699.9998m 
   80.60000m  147.4417m  699.9998m 
   80.70000m  147.3378m  699.9998m 
   80.80000m  147.2340m  699.9998m 
   80.90000m  147.1303m  699.9998m 
   81.00000m  147.0266m  699.9998m 
   81.10000m  146.9229m  699.9998m 
   81.20000m  146.8194m  699.9998m 
   81.30000m  146.7158m  699.9998m 
   81.40000m  146.6124m  699.9998m 
   81.50000m  146.5090m  699.9998m 
   81.60000m  146.4056m  699.9998m 
   81.70000m  146.3023m  699.9998m 
   81.80000m  146.1991m  699.9998m 
   81.90000m  146.0959m  699.9998m 
   82.00000m  145.9928m  699.9998m 
   82.10000m  145.8898m  699.9998m 
   82.20000m  145.7868m  699.9998m 
   82.30000m  145.6838m  699.9998m 
   82.40000m  145.5810m  699.9998m 
   82.50000m  145.4782m  699.9998m 
   82.60000m  145.3754m  699.9998m 
   82.70000m  145.2727m  699.9998m 
   82.80000m  145.1701m  699.9998m 
   82.90000m  145.0675m  699.9998m 
   83.00000m  144.9649m  699.9998m 
   83.10000m  144.8625m  699.9998m 
   83.20000m  144.7601m  699.9998m 
   83.30000m  144.6577m  699.9998m 
   83.40000m  144.5554m  699.9998m 
   83.50000m  144.4532m  699.9998m 
   83.60000m  144.3510m  699.9998m 
   83.70000m  144.2489m  699.9998m 
   83.80000m  144.1468m  699.9998m 
   83.90000m  144.0448m  699.9998m 
   84.00000m  143.9429m  699.9998m 
   84.10000m  143.8410m  699.9998m 
   84.20000m  143.7392m  699.9998m 
   84.30000m  143.6374m  699.9998m 
   84.40000m  143.5357m  699.9998m 
   84.50000m  143.4340m  699.9998m 
   84.60000m  143.3324m  699.9998m 
   84.70000m  143.2309m  699.9998m 
   84.80000m  143.1294m  699.9998m 
   84.90000m  143.0280m  699.9998m 
   85.00000m  142.9266m  699.9998m 
   85.10000m  142.8253m  699.9998m 
   85.20000m  142.7240m  699.9998m 
   85.30000m  142.6228m  699.9998m 
   85.40000m  142.5217m  699.9998m 
   85.50000m  142.4206m  699.9998m 
   85.60000m  142.3196m  699.9998m 
   85.70000m  142.2186m  699.9998m 
   85.80000m  142.1177m  699.9998m 
   85.90000m  142.0168m  699.9998m 
   86.00000m  141.9161m  699.9998m 
   86.10000m  141.8153m  699.9998m 
   86.20000m  141.7146m  699.9998m 
   86.30000m  141.6140m  699.9998m 
   86.40000m  141.5134m  699.9998m 
   86.50000m  141.4129m  699.9998m 
   86.60000m  141.3125m  699.9998m 
   86.70000m  141.2121m  699.9998m 
   86.80000m  141.1117m  699.9998m 
   86.90000m  141.0114m  699.9998m 
   87.00000m  140.9112m  699.9998m 
   87.10000m  140.8110m  699.9998m 
   87.20000m  140.7109m  699.9998m 
   87.30000m  140.6109m  699.9998m 
   87.40000m  140.5109m  699.9998m 
   87.50000m  140.4109m  699.9998m 
   87.60000m  140.3110m  699.9998m 
   87.70000m  140.2112m  699.9998m 
   87.80000m  140.1114m  699.9998m 
   87.90000m  140.0117m  699.9998m 
   88.00000m  139.9120m  699.9998m 
   88.10000m  139.8124m  699.9998m 
   88.20000m  139.7129m  699.9998m 
   88.30000m  139.6134m  699.9998m 
   88.40000m  139.5139m  699.9998m 
   88.50000m  139.4145m  699.9998m 
   88.60000m  139.3152m  699.9998m 
   88.70000m  139.2159m  699.9998m 
   88.80000m  139.1167m  699.9998m 
   88.90000m  139.0176m  699.9998m 
   89.00000m  138.9185m  699.9998m 
   89.10000m  138.8194m  699.9998m 
   89.20000m  138.7204m  699.9998m 
   89.30000m  138.6215m  699.9998m 
   89.40000m  138.5226m  699.9998m 
   89.50000m  138.4238m  699.9998m 
   89.60000m  138.3250m  699.9998m 
   89.70000m  138.2263m  699.9998m 
   89.80000m  138.1276m  699.9998m 
   89.90000m  138.0290m  699.9998m 
   90.00000m  137.9305m  699.9998m 
   90.10000m  137.8320m  699.9998m 
   90.20000m  137.7336m  699.9998m 
   90.30000m  137.6352m  699.9998m 
   90.40000m  137.5368m  699.9998m 
   90.50000m  137.4386m  699.9998m 
   90.60000m  137.3404m  699.9998m 
   90.70000m  137.2422m  699.9998m 
   90.80000m  137.1441m  699.9998m 
   90.90000m  137.0460m  699.9998m 
   91.00000m  136.9480m  699.9998m 
   91.10000m  136.8501m  699.9998m 
   91.20000m  136.7522m  699.9998m 
   91.30000m  136.6544m  699.9998m 
   91.40000m  136.5566m  699.9998m 
   91.50000m  136.4589m  699.9998m 
   91.60000m  136.3612m  699.9998m 
   91.70000m  136.2636m  699.9998m 
   91.80000m  136.1661m  699.9998m 
   91.90000m  136.0686m  699.9998m 
   92.00000m  135.9711m  699.9998m 
   92.10000m  135.8737m  699.9998m 
   92.20000m  135.7764m  699.9998m 
   92.30000m  135.6791m  699.9998m 
   92.40000m  135.5819m  699.9998m 
   92.50000m  135.4847m  699.9998m 
   92.60000m  135.3876m  699.9998m 
   92.70000m  135.2905m  699.9998m 
   92.80000m  135.1935m  699.9998m 
   92.90000m  135.0965m  699.9997m 
   93.00000m  134.9996m  699.9997m 
   93.10000m  134.9028m  699.9997m 
   93.20000m  134.8060m  699.9997m 
   93.30000m  134.7093m  699.9997m 
   93.40000m  134.6126m  699.9997m 
   93.50000m  134.5159m  699.9997m 
   93.60000m  134.4194m  699.9997m 
   93.70000m  134.3228m  699.9997m 
   93.80000m  134.2264m  699.9997m 
   93.90000m  134.1300m  699.9997m 
   94.00000m  134.0336m  699.9997m 
   94.10000m  133.9373m  699.9997m 
   94.20000m  133.8410m  699.9997m 
   94.30000m  133.7448m  699.9997m 
   94.40000m  133.6487m  699.9997m 
   94.50000m  133.5526m  699.9997m 
   94.60000m  133.4565m  699.9997m 
   94.70000m  133.3606m  699.9997m 
   94.80000m  133.2646m  699.9997m 
   94.90000m  133.1687m  699.9997m 
   95.00000m  133.0729m  699.9997m 
   95.10000m  132.9771m  699.9997m 
   95.20000m  132.8814m  699.9997m 
   95.30000m  132.7858m  699.9997m 
   95.40000m  132.6902m  699.9997m 
   95.50000m  132.5946m  699.9997m 
   95.60000m  132.4991m  699.9997m 
   95.70000m  132.4036m  699.9997m 
   95.80000m  132.3082m  699.9997m 
   95.90000m  132.2129m  699.9997m 
   96.00000m  132.1176m  699.9997m 
   96.10000m  132.0224m  699.9997m 
   96.20000m  131.9272m  699.9997m 
   96.30000m  131.8320m  699.9997m 
   96.40000m  131.7370m  699.9997m 
   96.50000m  131.6419m  699.9997m 
   96.60000m  131.5470m  699.9997m 
   96.70000m  131.4520m  699.9997m 
   96.80000m  131.3572m  699.9997m 
   96.90000m  131.2623m  699.9997m 
   97.00000m  131.1676m  699.9997m 
   97.10000m  131.0729m  699.9997m 
   97.20000m  130.9782m  699.9997m 
   97.30000m  130.8836m  699.9997m 
   97.40000m  130.7891m  699.9997m 
   97.50000m  130.6945m  699.9997m 
   97.60000m  130.6001m  699.9997m 
   97.70000m  130.5057m  699.9997m 
   97.80000m  130.4114m  699.9997m 
   97.90000m  130.3171m  699.9997m 
   98.00000m  130.2228m  699.9997m 
   98.10000m  130.1286m  699.9997m 
   98.20000m  130.0345m  699.9997m 
   98.30000m  129.9404m  699.9997m 
   98.40000m  129.8464m  699.9997m 
   98.50000m  129.7524m  699.9997m 
   98.60000m  129.6585m  699.9997m 
   98.70000m  129.5646m  699.9997m 
   98.80000m  129.4708m  699.9997m 
   98.90000m  129.3770m  699.9997m 
   99.00000m  129.2833m  699.9997m 
   99.10000m  129.1896m  699.9997m 
   99.20000m  129.0960m  699.9997m 
   99.30000m  129.0025m  699.9997m 
   99.40000m  128.9090m  699.9997m 
   99.50000m  128.8155m  699.9997m 
   99.60000m  128.7221m  699.9997m 
   99.70000m  128.6287m  699.9997m 
   99.80000m  128.5354m  699.9997m 
   99.90000m  128.4422m  699.9997m 
  100.00000m  128.3490m  699.9997m 
  100.10000m  128.2558m  699.9997m 
  100.20000m  128.1627m  699.9997m 
  100.30000m  128.0697m  699.9997m 
  100.40000m  127.9767m  699.9997m 
  100.50000m  127.8838m  699.9997m 
  100.60000m  127.7909m  699.9997m 
  100.70000m  127.6980m  699.9997m 
  100.80000m  127.6052m  699.9997m 
  100.90000m  127.5125m  699.9997m 
  101.00000m  127.4198m  699.9997m 
  101.10000m  127.3272m  699.9997m 
  101.20000m  127.2346m  699.9997m 
  101.30000m  127.1421m  699.9996m 
  101.40000m  127.0496m  699.9996m 
  101.50000m  126.9571m  699.9996m 
  101.60000m  126.8648m  699.9996m 
  101.70000m  126.7724m  699.9996m 
  101.80000m  126.6802m  699.9996m 
  101.90000m  126.5879m  699.9996m 
  102.00000m  126.4957m  699.9996m 
  102.10000m  126.4036m  699.9996m 
  102.20000m  126.3115m  699.9996m 
  102.30000m  126.2195m  699.9996m 
  102.40000m  126.1275m  699.9996m 
  102.50000m  126.0356m  699.9996m 
  102.60000m  125.9438m  699.9996m 
  102.70000m  125.8519m  699.9996m 
  102.80000m  125.7602m  699.9996m 
  102.90000m  125.6684m  699.9996m 
  103.00000m  125.5768m  699.9996m 
  103.10000m  125.4851m  699.9996m 
  103.20000m  125.3936m  699.9996m 
  103.30000m  125.3021m  699.9996m 
  103.40000m  125.2106m  699.9996m 
  103.50000m  125.1192m  699.9996m 
  103.60000m  125.0278m  699.9996m 
  103.70000m  124.9365m  699.9996m 
  103.80000m  124.8452m  699.9996m 
  103.90000m  124.7540m  699.9996m 
  104.00000m  124.6628m  699.9996m 
  104.10000m  124.5717m  699.9996m 
  104.20000m  124.4806m  699.9996m 
  104.30000m  124.3896m  699.9996m 
  104.40000m  124.2987m  699.9996m 
  104.50000m  124.2077m  699.9996m 
  104.60000m  124.1169m  699.9996m 
  104.70000m  124.0261m  699.9996m 
  104.80000m  123.9353m  699.9996m 
  104.90000m  123.8446m  699.9996m 
  105.00000m  123.7539m  699.9996m 
  105.10000m  123.6633m  699.9996m 
  105.20000m  123.5727m  699.9996m 
  105.30000m  123.4822m  699.9996m 
  105.40000m  123.3917m  699.9996m 
  105.50000m  123.3013m  699.9996m 
  105.60000m  123.2109m  699.9996m 
  105.70000m  123.1206m  699.9996m 
  105.80000m  123.0303m  699.9996m 
  105.90000m  122.9401m  699.9996m 
  106.00000m  122.8499m  699.9996m 
  106.10000m  122.7598m  699.9996m 
  106.20000m  122.6697m  699.9996m 
  106.30000m  122.5797m  699.9996m 
  106.40000m  122.4897m  699.9996m 
  106.50000m  122.3998m  699.9996m 
  106.60000m  122.3099m  699.9996m 
  106.70000m  122.2201m  699.9996m 
  106.80000m  122.1303m  699.9996m 
  106.90000m  122.0406m  699.9996m 
  107.00000m  121.9509m  699.9996m 
  107.10000m  121.8613m  699.9996m 
  107.20000m  121.7717m  699.9996m 
  107.30000m  121.6822m  699.9996m 
  107.40000m  121.5927m  699.9996m 
  107.50000m  121.5032m  699.9995m 
  107.60000m  121.4138m  699.9995m 
  107.70000m  121.3245m  699.9995m 
  107.80000m  121.2352m  699.9995m 
  107.90000m  121.1460m  699.9995m 
  108.00000m  121.0568m  699.9995m 
  108.10000m  120.9676m  699.9995m 
  108.20000m  120.8785m  699.9995m 
  108.30000m  120.7895m  699.9995m 
  108.40000m  120.7005m  699.9995m 
  108.50000m  120.6115m  699.9995m 
  108.60000m  120.5226m  699.9995m 
  108.70000m  120.4338m  699.9995m 
  108.80000m  120.3450m  699.9995m 
  108.90000m  120.2562m  699.9995m 
  109.00000m  120.1675m  699.9995m 
  109.10000m  120.0788m  699.9995m 
  109.20000m  119.9902m  699.9995m 
  109.30000m  119.9017m  699.9995m 
  109.40000m  119.8132m  699.9995m 
  109.50000m  119.7247m  699.9995m 
  109.60000m  119.6363m  699.9995m 
  109.70000m  119.5479m  699.9995m 
  109.80000m  119.4596m  699.9995m 
  109.90000m  119.3713m  699.9995m 
  110.00000m  119.2831m  699.9995m 
  110.10000m  119.1949m  699.9995m 
  110.20000m  119.1068m  699.9995m 
  110.30000m  119.0187m  699.9995m 
  110.40000m  118.9306m  699.9995m 
  110.50000m  118.8426m  699.9995m 
  110.60000m  118.7547m  699.9995m 
  110.70000m  118.6668m  699.9995m 
  110.80000m  118.5790m  699.9995m 
  110.90000m  118.4912m  699.9995m 
  111.00000m  118.4034m  699.9995m 
  111.10000m  118.3157m  699.9995m 
  111.20000m  118.2281m  699.9995m 
  111.30000m  118.1405m  699.9995m 
  111.40000m  118.0529m  699.9995m 
  111.50000m  117.9654m  699.9995m 
  111.60000m  117.8779m  699.9995m 
  111.70000m  117.7905m  699.9995m 
  111.80000m  117.7031m  699.9995m 
  111.90000m  117.6158m  699.9995m 
  112.00000m  117.5285m  699.9995m 
  112.10000m  117.4413m  699.9995m 
  112.20000m  117.3541m  699.9995m 
  112.30000m  117.2670m  699.9995m 
  112.40000m  117.1799m  699.9995m 
  112.50000m  117.0929m  699.9994m 
  112.60000m  117.0059m  699.9994m 
  112.70000m  116.9189m  699.9994m 
  112.80000m  116.8320m  699.9994m 
  112.90000m  116.7452m  699.9994m 
  113.00000m  116.6584m  699.9994m 
  113.10000m  116.5716m  699.9994m 
  113.20000m  116.4849m  699.9994m 
  113.30000m  116.3982m  699.9994m 
  113.40000m  116.3116m  699.9994m 
  113.50000m  116.2251m  699.9994m 
  113.60000m  116.1385m  699.9994m 
  113.70000m  116.0521m  699.9994m 
  113.80000m  115.9656m  699.9994m 
  113.90000m  115.8792m  699.9994m 
  114.00000m  115.7929m  699.9994m 
  114.10000m  115.7066m  699.9994m 
  114.20000m  115.6204m  699.9994m 
  114.30000m  115.5342m  699.9994m 
  114.40000m  115.4480m  699.9994m 
  114.50000m  115.3619m  699.9994m 
  114.60000m  115.2759m  699.9994m 
  114.70000m  115.1899m  699.9994m 
  114.80000m  115.1039m  699.9994m 
  114.90000m  115.0180m  699.9994m 
  115.00000m  114.9321m  699.9994m 
  115.10000m  114.8463m  699.9994m 
  115.20000m  114.7605m  699.9994m 
  115.30000m  114.6748m  699.9994m 
  115.40000m  114.5891m  699.9994m 
  115.50000m  114.5034m  699.9994m 
  115.60000m  114.4178m  699.9994m 
  115.70000m  114.3323m  699.9994m 
  115.80000m  114.2468m  699.9994m 
  115.90000m  114.1613m  699.9994m 
  116.00000m  114.0759m  699.9994m 
  116.10000m  113.9906m  699.9994m 
  116.20000m  113.9052m  699.9994m 
  116.30000m  113.8200m  699.9994m 
  116.40000m  113.7347m  699.9994m 
  116.50000m  113.6496m  699.9994m 
  116.60000m  113.5644m  699.9993m 
  116.70000m  113.4793m  699.9993m 
  116.80000m  113.3943m  699.9993m 
  116.90000m  113.3093m  699.9993m 
  117.00000m  113.2243m  699.9993m 
  117.10000m  113.1394m  699.9993m 
  117.20000m  113.0546m  699.9993m 
  117.30000m  112.9697m  699.9993m 
  117.40000m  112.8850m  699.9993m 
  117.50000m  112.8003m  699.9993m 
  117.60000m  112.7156m  699.9993m 
  117.70000m  112.6309m  699.9993m 
  117.80000m  112.5464m  699.9993m 
  117.90000m  112.4618m  699.9993m 
  118.00000m  112.3773m  699.9993m 
  118.10000m  112.2929m  699.9993m 
  118.20000m  112.2084m  699.9993m 
  118.30000m  112.1241m  699.9993m 
  118.40000m  112.0398m  699.9993m 
  118.50000m  111.9555m  699.9993m 
  118.60000m  111.8713m  699.9993m 
  118.70000m  111.7871m  699.9993m 
  118.80000m  111.7030m  699.9993m 
  118.90000m  111.6189m  699.9993m 
  119.00000m  111.5348m  699.9993m 
  119.10000m  111.4508m  699.9993m 
  119.20000m  111.3669m  699.9993m 
  119.30000m  111.2830m  699.9993m 
  119.40000m  111.1991m  699.9993m 
  119.50000m  111.1153m  699.9993m 
  119.60000m  111.0315m  699.9993m 
  119.70000m  110.9478m  699.9993m 
  119.80000m  110.8641m  699.9993m 
  119.90000m  110.7804m  699.9993m 
  120.00000m  110.6968m  699.9993m 
  120.10000m  110.6133m  699.9992m 
  120.20000m  110.5298m  699.9992m 
  120.30000m  110.4463m  699.9992m 
  120.40000m  110.3629m  699.9992m 
  120.50000m  110.2795m  699.9992m 
  120.60000m  110.1962m  699.9992m 
  120.70000m  110.1129m  699.9992m 
  120.80000m  110.0297m  699.9992m 
  120.90000m  109.9465m  699.9992m 
  121.00000m  109.8633m  699.9992m 
  121.10000m  109.7802m  699.9992m 
  121.20000m  109.6971m  699.9992m 
  121.30000m  109.6141m  699.9992m 
  121.40000m  109.5311m  699.9992m 
  121.50000m  109.4482m  699.9992m 
  121.60000m  109.3653m  699.9992m 
  121.70000m  109.2825m  699.9992m 
  121.80000m  109.1997m  699.9992m 
  121.90000m  109.1169m  699.9992m 
  122.00000m  109.0342m  699.9992m 
  122.10000m  108.9516m  699.9992m 
  122.20000m  108.8689m  699.9992m 
  122.30000m  108.7864m  699.9992m 
  122.40000m  108.7038m  699.9992m 
  122.50000m  108.6213m  699.9992m 
  122.60000m  108.5389m  699.9992m 
  122.70000m  108.4565m  699.9992m 
  122.80000m  108.3741m  699.9992m 
  122.90000m  108.2918m  699.9992m 
  123.00000m  108.2096m  699.9992m 
  123.10000m  108.1273m  699.9992m 
  123.20000m  108.0452m  699.9991m 
  123.30000m  107.9630m  699.9991m 
  123.40000m  107.8809m  699.9991m 
  123.50000m  107.7989m  699.9991m 
  123.60000m  107.7169m  699.9991m 
  123.70000m  107.6349m  699.9991m 
  123.80000m  107.5530m  699.9991m 
  123.90000m  107.4711m  699.9991m 
  124.00000m  107.3893m  699.9991m 
  124.10000m  107.3075m  699.9991m 
  124.20000m  107.2257m  699.9991m 
  124.30000m  107.1440m  699.9991m 
  124.40000m  107.0624m  699.9991m 
  124.50000m  106.9808m  699.9991m 
  124.60000m  106.8992m  699.9991m 
  124.70000m  106.8177m  699.9991m 
  124.80000m  106.7362m  699.9991m 
  124.90000m  106.6547m  699.9991m 
  125.00000m  106.5733m  699.9991m 
  125.10000m  106.4920m  699.9991m 
  125.20000m  106.4107m  699.9991m 
  125.30000m  106.3294m  699.9991m 
  125.40000m  106.2482m  699.9991m 
  125.50000m  106.1670m  699.9991m 
  125.60000m  106.0858m  699.9991m 
  125.70000m  106.0048m  699.9991m 
  125.80000m  105.9237m  699.9991m 
  125.90000m  105.8427m  699.9990m 
  126.00000m  105.7617m  699.9990m 
  126.10000m  105.6808m  699.9990m 
  126.20000m  105.5999m  699.9990m 
  126.30000m  105.5191m  699.9990m 
  126.40000m  105.4383m  699.9990m 
  126.50000m  105.3575m  699.9990m 
  126.60000m  105.2768m  699.9990m 
  126.70000m  105.1961m  699.9990m 
  126.80000m  105.1155m  699.9990m 
  126.90000m  105.0349m  699.9990m 
  127.00000m  104.9544m  699.9990m 
  127.10000m  104.8739m  699.9990m 
  127.20000m  104.7934m  699.9990m 
  127.30000m  104.7130m  699.9990m 
  127.40000m  104.6327m  699.9990m 
  127.50000m  104.5523m  699.9990m 
  127.60000m  104.4721m  699.9990m 
  127.70000m  104.3918m  699.9990m 
  127.80000m  104.3116m  699.9990m 
  127.90000m  104.2315m  699.9990m 
  128.00000m  104.1513m  699.9990m 
  128.10000m  104.0713m  699.9990m 
  128.20000m  103.9912m  699.9990m 
  128.30000m  103.9113m  699.9990m 
  128.40000m  103.8313m  699.9989m 
  128.50000m  103.7514m  699.9989m 
  128.60000m  103.6716m  699.9989m 
  128.70000m  103.5917m  699.9989m 
  128.80000m  103.5120m  699.9989m 
  128.90000m  103.4322m  699.9989m 
  129.00000m  103.3525m  699.9989m 
  129.10000m  103.2729m  699.9989m 
  129.20000m  103.1933m  699.9989m 
  129.30000m  103.1137m  699.9989m 
  129.40000m  103.0342m  699.9989m 
  129.50000m  102.9547m  699.9989m 
  129.60000m  102.8753m  699.9989m 
  129.70000m  102.7959m  699.9989m 
  129.80000m  102.7165m  699.9989m 
  129.90000m  102.6372m  699.9989m 
  130.00000m  102.5579m  699.9989m 
  130.10000m  102.4787m  699.9989m 
  130.20000m  102.3995m  699.9989m 
  130.30000m  102.3204m  699.9989m 
  130.40000m  102.2413m  699.9989m 
  130.50000m  102.1622m  699.9989m 
  130.60000m  102.0832m  699.9988m 
  130.70000m  102.0042m  699.9988m 
  130.80000m  101.9253m  699.9988m 
  130.90000m  101.8464m  699.9988m 
  131.00000m  101.7675m  699.9988m 
  131.10000m  101.6887m  699.9988m 
  131.20000m  101.6099m  699.9988m 
  131.30000m  101.5312m  699.9988m 
  131.40000m  101.4525m  699.9988m 
  131.50000m  101.3739m  699.9988m 
  131.60000m  101.2953m  699.9988m 
  131.70000m  101.2167m  699.9988m 
  131.80000m  101.1382m  699.9988m 
  131.90000m  101.0597m  699.9988m 
  132.00000m  100.9813m  699.9988m 
  132.10000m  100.9029m  699.9988m 
  132.20000m  100.8245m  699.9988m 
  132.30000m  100.7462m  699.9988m 
  132.40000m  100.6679m  699.9988m 
  132.50000m  100.5897m  699.9988m 
  132.60000m  100.5115m  699.9987m 
  132.70000m  100.4334m  699.9987m 
  132.80000m  100.3552m  699.9987m 
  132.90000m  100.2772m  699.9987m 
  133.00000m  100.1991m  699.9987m 
  133.10000m  100.1212m  699.9987m 
  133.20000m  100.0432m  699.9987m 
  133.30000m   99.9653m  699.9987m 
  133.40000m   99.8875m  699.9987m 
  133.50000m   99.8096m  699.9987m 
  133.60000m   99.7319m  699.9987m 
  133.70000m   99.6541m  699.9987m 
  133.80000m   99.5764m  699.9987m 
  133.90000m   99.4988m  699.9987m 
  134.00000m   99.4211m  699.9987m 
  134.10000m   99.3436m  699.9987m 
  134.20000m   99.2660m  699.9987m 
  134.30000m   99.1885m  699.9987m 
  134.40000m   99.1111m  699.9987m 
  134.50000m   99.0337m  699.9986m 
  134.60000m   98.9563m  699.9986m 
  134.70000m   98.8790m  699.9986m 
  134.80000m   98.8017m  699.9986m 
  134.90000m   98.7244m  699.9986m 
  135.00000m   98.6472m  699.9986m 
  135.10000m   98.5700m  699.9986m 
  135.20000m   98.4929m  699.9986m 
  135.30000m   98.4158m  699.9986m 
  135.40000m   98.3388m  699.9986m 
  135.50000m   98.2618m  699.9986m 
  135.60000m   98.1848m  699.9986m 
  135.70000m   98.1079m  699.9986m 
  135.80000m   98.0310m  699.9986m 
  135.90000m   97.9541m  699.9986m 
  136.00000m   97.8773m  699.9986m 
  136.10000m   97.8006m  699.9986m 
  136.20000m   97.7239m  699.9986m 
  136.30000m   97.6472m  699.9985m 
  136.40000m   97.5705m  699.9985m 
  136.50000m   97.4939m  699.9985m 
  136.60000m   97.4174m  699.9985m 
  136.70000m   97.3408m  699.9985m 
  136.80000m   97.2644m  699.9985m 
  136.90000m   97.1879m  699.9985m 
  137.00000m   97.1115m  699.9985m 
  137.10000m   97.0351m  699.9985m 
  137.20000m   96.9588m  699.9985m 
  137.30000m   96.8825m  699.9985m 
  137.40000m   96.8063m  699.9985m 
  137.50000m   96.7301m  699.9985m 
  137.60000m   96.6539m  699.9985m 
  137.70000m   96.5778m  699.9985m 
  137.80000m   96.5017m  699.9985m 
  137.90000m   96.4257m  699.9984m 
  138.00000m   96.3497m  699.9984m 
  138.10000m   96.2737m  699.9984m 
  138.20000m   96.1978m  699.9984m 
  138.30000m   96.1219m  699.9984m 
  138.40000m   96.0461m  699.9984m 
  138.50000m   95.9703m  699.9984m 
  138.60000m   95.8945m  699.9984m 
  138.70000m   95.8188m  699.9984m 
  138.80000m   95.7431m  699.9984m 
  138.90000m   95.6674m  699.9984m 
  139.00000m   95.5918m  699.9984m 
  139.10000m   95.5163m  699.9984m 
  139.20000m   95.4408m  699.9984m 
  139.30000m   95.3653m  699.9984m 
  139.40000m   95.2898m  699.9983m 
  139.50000m   95.2144m  699.9983m 
  139.60000m   95.1390m  699.9983m 
  139.70000m   95.0637m  699.9983m 
  139.80000m   94.9884m  699.9983m 
  139.90000m   94.9132m  699.9983m 
  140.00000m   94.8380m  699.9983m 
  140.10000m   94.7628m  699.9983m 
  140.20000m   94.6877m  699.9983m 
  140.30000m   94.6126m  699.9983m 
  140.40000m   94.5375m  699.9983m 
  140.50000m   94.4625m  699.9983m 
  140.60000m   94.3875m  699.9983m 
  140.70000m   94.3126m  699.9983m 
  140.80000m   94.2377m  699.9982m 
  140.90000m   94.1629m  699.9982m 
  141.00000m   94.0880m  699.9982m 
  141.10000m   94.0133m  699.9982m 
  141.20000m   93.9385m  699.9982m 
  141.30000m   93.8638m  699.9982m 
  141.40000m   93.7892m  699.9982m 
  141.50000m   93.7145m  699.9982m 
  141.60000m   93.6400m  699.9982m 
  141.70000m   93.5654m  699.9982m 
  141.80000m   93.4909m  699.9982m 
  141.90000m   93.4164m  699.9982m 
  142.00000m   93.3420m  699.9982m 
  142.10000m   93.2676m  699.9982m 
  142.20000m   93.1933m  699.9981m 
  142.30000m   93.1190m  699.9981m 
  142.40000m   93.0447m  699.9981m 
  142.50000m   92.9705m  699.9981m 
  142.60000m   92.8963m  699.9981m 
  142.70000m   92.8221m  699.9981m 
  142.80000m   92.7480m  699.9981m 
  142.90000m   92.6739m  699.9981m 
  143.00000m   92.5999m  699.9981m 
  143.10000m   92.5259m  699.9981m 
  143.20000m   92.4519m  699.9981m 
  143.30000m   92.3780m  699.9981m 
  143.40000m   92.3041m  699.9981m 
  143.50000m   92.2303m  699.9980m 
  143.60000m   92.1565m  699.9980m 
  143.70000m   92.0827m  699.9980m 
  143.80000m   92.0090m  699.9980m 
  143.90000m   91.9353m  699.9980m 
  144.00000m   91.8617m  699.9980m 
  144.10000m   91.7880m  699.9980m 
  144.20000m   91.7145m  699.9980m 
  144.30000m   91.6409m  699.9980m 
  144.40000m   91.5674m  699.9980m 
  144.50000m   91.4940m  699.9980m 
  144.60000m   91.4206m  699.9980m 
  144.70000m   91.3472m  699.9979m 
  144.80000m   91.2738m  699.9979m 
  144.90000m   91.2005m  699.9979m 
  145.00000m   91.1273m  699.9979m 
  145.10000m   91.0540m  699.9979m 
  145.20000m   90.9809m  699.9979m 
  145.30000m   90.9077m  699.9979m 
  145.40000m   90.8346m  699.9979m 
  145.50000m   90.7615m  699.9979m 
  145.60000m   90.6885m  699.9979m 
  145.70000m   90.6155m  699.9979m 
  145.80000m   90.5425m  699.9978m 
  145.90000m   90.4696m  699.9978m 
  146.00000m   90.3967m  699.9978m 
  146.10000m   90.3239m  699.9978m 
  146.20000m   90.2511m  699.9978m 
  146.30000m   90.1783m  699.9978m 
  146.40000m   90.1056m  699.9978m 
  146.50000m   90.0329m  699.9978m 
  146.60000m   89.9602m  699.9978m 
  146.70000m   89.8876m  699.9978m 
  146.80000m   89.8150m  699.9978m 
  146.90000m   89.7425m  699.9977m 
  147.00000m   89.6700m  699.9977m 
  147.10000m   89.5975m  699.9977m 
  147.20000m   89.5251m  699.9977m 
  147.30000m   89.4527m  699.9977m 
  147.40000m   89.3803m  699.9977m 
  147.50000m   89.3080m  699.9977m 
  147.60000m   89.2357m  699.9977m 
  147.70000m   89.1635m  699.9977m 
  147.80000m   89.0913m  699.9977m 
  147.90000m   89.0191m  699.9977m 
  148.00000m   88.9470m  699.9976m 
  148.10000m   88.8749m  699.9976m 
  148.20000m   88.8029m  699.9976m 
  148.30000m   88.7309m  699.9976m 
  148.40000m   88.6589m  699.9976m 
  148.50000m   88.5869m  699.9976m 
  148.60000m   88.5150m  699.9976m 
  148.70000m   88.4432m  699.9976m 
  148.80000m   88.3714m  699.9976m 
  148.90000m   88.2996m  699.9976m 
  149.00000m   88.2278m  699.9975m 
  149.10000m   88.1561m  699.9975m 
  149.20000m   88.0844m  699.9975m 
  149.30000m   88.0128m  699.9975m 
  149.40000m   87.9412m  699.9975m 
  149.50000m   87.8696m  699.9975m 
  149.60000m   87.7981m  699.9975m 
  149.70000m   87.7266m  699.9975m 
  149.80000m   87.6552m  699.9975m 
  149.90000m   87.5838m  699.9975m 
  150.00000m   87.5124m  699.9974m 
  150.10000m   87.4410m  699.9974m 
  150.20000m   87.3697m  699.9974m 
  150.30000m   87.2985m  699.9974m 
  150.40000m   87.2273m  699.9974m 
  150.50000m   87.1561m  699.9974m 
  150.60000m   87.0849m  699.9974m 
  150.70000m   87.0138m  699.9974m 
  150.80000m   86.9427m  699.9974m 
  150.90000m   86.8717m  699.9973m 
  151.00000m   86.8007m  699.9973m 
  151.10000m   86.7297m  699.9973m 
  151.20000m   86.6588m  699.9973m 
  151.30000m   86.5879m  699.9973m 
  151.40000m   86.5170m  699.9973m 
  151.50000m   86.4462m  699.9973m 
  151.60000m   86.3754m  699.9973m 
  151.70000m   86.3047m  699.9973m 
  151.80000m   86.2340m  699.9972m 
  151.90000m   86.1633m  699.9972m 
  152.00000m   86.0927m  699.9972m 
  152.10000m   86.0221m  699.9972m 
  152.20000m   85.9515m  699.9972m 
  152.30000m   85.8810m  699.9972m 
  152.40000m   85.8105m  699.9972m 
  152.50000m   85.7401m  699.9972m 
  152.60000m   85.6697m  699.9972m 
  152.70000m   85.5993m  699.9971m 
  152.80000m   85.5290m  699.9971m 
  152.90000m   85.4587m  699.9971m 
  153.00000m   85.3884m  699.9971m 
  153.10000m   85.3182m  699.9971m 
  153.20000m   85.2480m  699.9971m 
  153.30000m   85.1778m  699.9971m 
  153.40000m   85.1077m  699.9971m 
  153.50000m   85.0376m  699.9970m 
  153.60000m   84.9676m  699.9970m 
  153.70000m   84.8976m  699.9970m 
  153.80000m   84.8276m  699.9970m 
  153.90000m   84.7577m  699.9970m 
  154.00000m   84.6878m  699.9970m 
  154.10000m   84.6179m  699.9970m 
  154.20000m   84.5481m  699.9970m 
  154.30000m   84.4783m  699.9969m 
  154.40000m   84.4086m  699.9969m 
  154.50000m   84.3388m  699.9969m 
  154.60000m   84.2692m  699.9969m 
  154.70000m   84.1995m  699.9969m 
  154.80000m   84.1299m  699.9969m 
  154.90000m   84.0604m  699.9969m 
  155.00000m   83.9908m  699.9969m 
  155.10000m   83.9213m  699.9968m 
  155.20000m   83.8519m  699.9968m 
  155.30000m   83.7824m  699.9968m 
  155.40000m   83.7131m  699.9968m 
  155.50000m   83.6437m  699.9968m 
  155.60000m   83.5744m  699.9968m 
  155.70000m   83.5051m  699.9968m 
  155.80000m   83.4359m  699.9967m 
  155.90000m   83.3667m  699.9967m 
  156.00000m   83.2975m  699.9967m 
  156.10000m   83.2284m  699.9967m 
  156.20000m   83.1593m  699.9967m 
  156.30000m   83.0902m  699.9967m 
  156.40000m   83.0212m  699.9967m 
  156.50000m   82.9522m  699.9967m 
  156.60000m   82.8832m  699.9966m 
  156.70000m   82.8143m  699.9966m 
  156.80000m   82.7454m  699.9966m 
  156.90000m   82.6766m  699.9966m 
  157.00000m   82.6078m  699.9966m 
  157.10000m   82.5390m  699.9966m 
  157.20000m   82.4703m  699.9966m 
  157.30000m   82.4016m  699.9965m 
  157.40000m   82.3329m  699.9965m 
  157.50000m   82.2643m  699.9965m 
  157.60000m   82.1957m  699.9965m 
  157.70000m   82.1272m  699.9965m 
  157.80000m   82.0586m  699.9965m 
  157.90000m   81.9902m  699.9965m 
  158.00000m   81.9217m  699.9964m 
  158.10000m   81.8533m  699.9964m 
  158.20000m   81.7849m  699.9964m 
  158.30000m   81.7166m  699.9964m 
  158.40000m   81.6483m  699.9964m 
  158.50000m   81.5800m  699.9964m 
  158.60000m   81.5118m  699.9963m 
  158.70000m   81.4436m  699.9963m 
  158.80000m   81.3754m  699.9963m 
  158.90000m   81.3073m  699.9963m 
  159.00000m   81.2392m  699.9963m 
  159.10000m   81.1711m  699.9963m 
  159.20000m   81.1031m  699.9963m 
  159.30000m   81.0351m  699.9962m 
  159.40000m   80.9672m  699.9962m 
  159.50000m   80.8993m  699.9962m 
  159.60000m   80.8314m  699.9962m 
  159.70000m   80.7636m  699.9962m 
  159.80000m   80.6958m  699.9962m 
  159.90000m   80.6280m  699.9961m 
  160.00000m   80.5603m  699.9961m 
  160.10000m   80.4926m  699.9961m 
  160.20000m   80.4249m  699.9961m 
  160.30000m   80.3573m  699.9961m 
  160.40000m   80.2897m  699.9961m 
  160.50000m   80.2221m  699.9961m 
  160.60000m   80.1546m  699.9960m 
  160.70000m   80.0871m  699.9960m 
  160.80000m   80.0197m  699.9960m 
  160.90000m   79.9523m  699.9960m 
  161.00000m   79.8849m  699.9960m 
  161.10000m   79.8175m  699.9960m 
  161.20000m   79.7502m  699.9959m 
  161.30000m   79.6830m  699.9959m 
  161.40000m   79.6157m  699.9959m 
  161.50000m   79.5485m  699.9959m 
  161.60000m   79.4814m  699.9959m 
  161.70000m   79.4142m  699.9958m 
  161.80000m   79.3471m  699.9958m 
  161.90000m   79.2801m  699.9958m 
  162.00000m   79.2131m  699.9958m 
  162.10000m   79.1461m  699.9958m 
  162.20000m   79.0791m  699.9958m 
  162.30000m   79.0122m  699.9957m 
  162.40000m   78.9453m  699.9957m 
  162.50000m   78.8785m  699.9957m 
  162.60000m   78.8116m  699.9957m 
  162.70000m   78.7449m  699.9957m 
  162.80000m   78.6781m  699.9957m 
  162.90000m   78.6114m  699.9956m 
  163.00000m   78.5447m  699.9956m 
  163.10000m   78.4781m  699.9956m 
  163.20000m   78.4115m  699.9956m 
  163.30000m   78.3449m  699.9956m 
  163.40000m   78.2784m  699.9955m 
  163.50000m   78.2119m  699.9955m 
  163.60000m   78.1454m  699.9955m 
  163.70000m   78.0790m  699.9955m 
  163.80000m   78.0126m  699.9955m 
  163.90000m   77.9463m  699.9955m 
  164.00000m   77.8799m  699.9954m 
  164.10000m   77.8136m  699.9954m 
  164.20000m   77.7474m  699.9954m 
  164.30000m   77.6812m  699.9954m 
  164.40000m   77.6150m  699.9954m 
  164.50000m   77.5488m  699.9953m 
  164.60000m   77.4827m  699.9953m 
  164.70000m   77.4167m  699.9953m 
  164.80000m   77.3506m  699.9953m 
  164.90000m   77.2846m  699.9953m 
  165.00000m   77.2186m  699.9952m 
  165.10000m   77.1527m  699.9952m 
  165.20000m   77.0868m  699.9952m 
  165.30000m   77.0209m  699.9952m 
  165.40000m   76.9551m  699.9952m 
  165.50000m   76.8893m  699.9951m 
  165.60000m   76.8235m  699.9951m 
  165.70000m   76.7578m  699.9951m 
  165.80000m   76.6921m  699.9951m 
  165.90000m   76.6264m  699.9951m 
  166.00000m   76.5608m  699.9950m 
  166.10000m   76.4952m  699.9950m 
  166.20000m   76.4296m  699.9950m 
  166.30000m   76.3641m  699.9950m 
  166.40000m   76.2986m  699.9950m 
  166.50000m   76.2332m  699.9949m 
  166.60000m   76.1678m  699.9949m 
  166.70000m   76.1024m  699.9949m 
  166.80000m   76.0370m  699.9949m 
  166.90000m   75.9717m  699.9948m 
  167.00000m   75.9064m  699.9948m 
  167.10000m   75.8412m  699.9948m 
  167.20000m   75.7760m  699.9948m 
  167.30000m   75.7108m  699.9948m 
  167.40000m   75.6456m  699.9947m 
  167.50000m   75.5805m  699.9947m 
  167.60000m   75.5155m  699.9947m 
  167.70000m   75.4504m  699.9947m 
  167.80000m   75.3854m  699.9946m 
  167.90000m   75.3204m  699.9946m 
  168.00000m   75.2555m  699.9946m 
  168.10000m   75.1906m  699.9946m 
  168.20000m   75.1257m  699.9946m 
  168.30000m   75.0609m  699.9945m 
  168.40000m   74.9961m  699.9945m 
  168.50000m   74.9313m  699.9945m 
  168.60000m   74.8666m  699.9945m 
  168.70000m   74.8019m  699.9944m 
  168.80000m   74.7372m  699.9944m 
  168.90000m   74.6726m  699.9944m 
  169.00000m   74.6080m  699.9944m 
  169.10000m   74.5435m  699.9944m 
  169.20000m   74.4789m  699.9943m 
  169.30000m   74.4144m  699.9943m 
  169.40000m   74.3500m  699.9943m 
  169.50000m   74.2856m  699.9943m 
  169.60000m   74.2212m  699.9942m 
  169.70000m   74.1568m  699.9942m 
  169.80000m   74.0925m  699.9942m 
  169.90000m   74.0282m  699.9942m 
  170.00000m   73.9640m  699.9941m 
  170.10000m   73.8997m  699.9941m 
  170.20000m   73.8356m  699.9941m 
  170.30000m   73.7714m  699.9941m 
  170.40000m   73.7073m  699.9940m 
  170.50000m   73.6432m  699.9940m 
  170.60000m   73.5792m  699.9940m 
  170.70000m   73.5151m  699.9940m 
  170.80000m   73.4512m  699.9939m 
  170.90000m   73.3872m  699.9939m 
  171.00000m   73.3233m  699.9939m 
  171.10000m   73.2594m  699.9939m 
  171.20000m   73.1956m  699.9938m 
  171.30000m   73.1318m  699.9938m 
  171.40000m   73.0680m  699.9938m 
  171.50000m   73.0043m  699.9938m 
  171.60000m   72.9405m  699.9937m 
  171.70000m   72.8769m  699.9937m 
  171.80000m   72.8132m  699.9937m 
  171.90000m   72.7496m  699.9937m 
  172.00000m   72.6860m  699.9936m 
  172.10000m   72.6225m  699.9936m 
  172.20000m   72.5590m  699.9936m 
  172.30000m   72.4955m  699.9935m 
  172.40000m   72.4321m  699.9935m 
  172.50000m   72.3687m  699.9935m 
  172.60000m   72.3053m  699.9935m 
  172.70000m   72.2420m  699.9934m 
  172.80000m   72.1787m  699.9934m 
  172.90000m   72.1154m  699.9934m 
  173.00000m   72.0522m  699.9934m 
  173.10000m   71.9890m  699.9933m 
  173.20000m   71.9258m  699.9933m 
  173.30000m   71.8627m  699.9933m 
  173.40000m   71.7996m  699.9932m 
  173.50000m   71.7365m  699.9932m 
  173.60000m   71.6735m  699.9932m 
  173.70000m   71.6105m  699.9932m 
  173.80000m   71.5475m  699.9931m 
  173.90000m   71.4846m  699.9931m 
  174.00000m   71.4217m  699.9931m 
  174.10000m   71.3588m  699.9930m 
  174.20000m   71.2960m  699.9930m 
  174.30000m   71.2332m  699.9930m 
  174.40000m   71.1704m  699.9930m 
  174.50000m   71.1077m  699.9929m 
  174.60000m   71.0450m  699.9929m 
  174.70000m   70.9823m  699.9929m 
  174.80000m   70.9197m  699.9928m 
  174.90000m   70.8571m  699.9928m 
  175.00000m   70.7945m  699.9928m 
  175.10000m   70.7320m  699.9927m 
  175.20000m   70.6695m  699.9927m 
  175.30000m   70.6070m  699.9927m 
  175.40000m   70.5446m  699.9927m 
  175.50000m   70.4822m  699.9926m 
  175.60000m   70.4198m  699.9926m 
  175.70000m   70.3575m  699.9926m 
  175.80000m   70.2952m  699.9925m 
  175.90000m   70.2329m  699.9925m 
  176.00000m   70.1707m  699.9925m 
  176.10000m   70.1085m  699.9924m 
  176.20000m   70.0463m  699.9924m 
  176.30000m   69.9842m  699.9924m 
  176.40000m   69.9221m  699.9923m 
  176.50000m   69.8601m  699.9923m 
  176.60000m   69.7980m  699.9923m 
  176.70000m   69.7360m  699.9922m 
  176.80000m   69.6741m  699.9922m 
  176.90000m   69.6121m  699.9922m 
  177.00000m   69.5502m  699.9921m 
  177.10000m   69.4884m  699.9921m 
  177.20000m   69.4265m  699.9921m 
  177.30000m   69.3647m  699.9920m 
  177.40000m   69.3030m  699.9920m 
  177.50000m   69.2412m  699.9920m 
  177.60000m   69.1795m  699.9919m 
  177.70000m   69.1179m  699.9919m 
  177.80000m   69.0562m  699.9919m 
  177.90000m   68.9946m  699.9918m 
  178.00000m   68.9331m  699.9918m 
  178.10000m   68.8715m  699.9918m 
  178.20000m   68.8100m  699.9917m 
  178.30000m   68.7486m  699.9917m 
  178.40000m   68.6871m  699.9917m 
  178.50000m   68.6257m  699.9916m 
  178.60000m   68.5644m  699.9916m 
  178.70000m   68.5030m  699.9916m 
  178.80000m   68.4417m  699.9915m 
  178.90000m   68.3805m  699.9915m 
  179.00000m   68.3192m  699.9915m 
  179.10000m   68.2580m  699.9914m 
  179.20000m   68.1969m  699.9914m 
  179.30000m   68.1357m  699.9913m 
  179.40000m   68.0746m  699.9913m 
  179.50000m   68.0135m  699.9913m 
  179.60000m   67.9525m  699.9912m 
  179.70000m   67.8915m  699.9912m 
  179.80000m   67.8305m  699.9912m 
  179.90000m   67.7696m  699.9911m 
  180.00000m   67.7087m  699.9911m 
  180.10000m   67.6478m  699.9911m 
  180.20000m   67.5870m  699.9910m 
  180.30000m   67.5261m  699.9910m 
  180.40000m   67.4654m  699.9909m 
  180.50000m   67.4046m  699.9909m 
  180.60000m   67.3439m  699.9909m 
  180.70000m   67.2832m  699.9908m 
  180.80000m   67.2226m  699.9908m 
  180.90000m   67.1620m  699.9907m 
  181.00000m   67.1014m  699.9907m 
  181.10000m   67.0409m  699.9907m 
  181.20000m   66.9803m  699.9906m 
  181.30000m   66.9199m  699.9906m 
  181.40000m   66.8594m  699.9906m 
  181.50000m   66.7990m  699.9905m 
  181.60000m   66.7386m  699.9905m 
  181.70000m   66.6783m  699.9904m 
  181.80000m   66.6180m  699.9904m 
  181.90000m   66.5577m  699.9904m 
  182.00000m   66.4974m  699.9903m 
  182.10000m   66.4372m  699.9903m 
  182.20000m   66.3770m  699.9902m 
  182.30000m   66.3169m  699.9902m 
  182.40000m   66.2567m  699.9901m 
  182.50000m   66.1966m  699.9901m 
  182.60000m   66.1366m  699.9901m 
  182.70000m   66.0766m  699.9900m 
  182.80000m   66.0166m  699.9900m 
  182.90000m   65.9566m  699.9899m 
  183.00000m   65.8967m  699.9899m 
  183.10000m   65.8368m  699.9899m 
  183.20000m   65.7769m  699.9898m 
  183.30000m   65.7171m  699.9898m 
  183.40000m   65.6573m  699.9897m 
  183.50000m   65.5975m  699.9897m 
  183.60000m   65.5378m  699.9896m 
  183.70000m   65.4781m  699.9896m 
  183.80000m   65.4184m  699.9895m 
  183.90000m   65.3588m  699.9895m 
  184.00000m   65.2992m  699.9895m 
  184.10000m   65.2396m  699.9894m 
  184.20000m   65.1801m  699.9894m 
  184.30000m   65.1206m  699.9893m 
  184.40000m   65.0611m  699.9893m 
  184.50000m   65.0017m  699.9892m 
  184.60000m   64.9423m  699.9892m 
  184.70000m   64.8829m  699.9891m 
  184.80000m   64.8236m  699.9891m 
  184.90000m   64.7643m  699.9891m 
  185.00000m   64.7050m  699.9890m 
  185.10000m   64.6457m  699.9890m 
  185.20000m   64.5865m  699.9889m 
  185.30000m   64.5273m  699.9889m 
  185.40000m   64.4682m  699.9888m 
  185.50000m   64.4091m  699.9888m 
  185.60000m   64.3500m  699.9887m 
  185.70000m   64.2909m  699.9887m 
  185.80000m   64.2319m  699.9886m 
  185.90000m   64.1729m  699.9886m 
  186.00000m   64.1140m  699.9885m 
  186.10000m   64.0550m  699.9885m 
  186.20000m   63.9962m  699.9884m 
  186.30000m   63.9373m  699.9884m 
  186.40000m   63.8785m  699.9883m 
  186.50000m   63.8197m  699.9883m 
  186.60000m   63.7609m  699.9882m 
  186.70000m   63.7022m  699.9882m 
  186.80000m   63.6435m  699.9881m 
  186.90000m   63.5848m  699.9881m 
  187.00000m   63.5262m  699.9880m 
  187.10000m   63.4676m  699.9880m 
  187.20000m   63.4090m  699.9879m 
  187.30000m   63.3505m  699.9879m 
  187.40000m   63.2920m  699.9878m 
  187.50000m   63.2335m  699.9878m 
  187.60000m   63.1751m  699.9877m 
  187.70000m   63.1167m  699.9877m 
  187.80000m   63.0583m  699.9876m 
  187.90000m   62.9999m  699.9876m 
  188.00000m   62.9416m  699.9875m 
  188.10000m   62.8833m  699.9875m 
  188.20000m   62.8251m  699.9874m 
  188.30000m   62.7669m  699.9874m 
  188.40000m   62.7087m  699.9873m 
  188.50000m   62.6505m  699.9873m 
  188.60000m   62.5924m  699.9872m 
  188.70000m   62.5343m  699.9872m 
  188.80000m   62.4763m  699.9871m 
  188.90000m   62.4182m  699.9870m 
  189.00000m   62.3602m  699.9870m 
  189.10000m   62.3023m  699.9869m 
  189.20000m   62.2444m  699.9869m 
  189.30000m   62.1865m  699.9868m 
  189.40000m   62.1286m  699.9868m 
  189.50000m   62.0708m  699.9867m 
  189.60000m   62.0130m  699.9867m 
  189.70000m   61.9552m  699.9866m 
  189.80000m   61.8975m  699.9865m 
  189.90000m   61.8397m  699.9865m 
  190.00000m   61.7821m  699.9864m 
  190.10000m   61.7244m  699.9864m 
  190.20000m   61.6668m  699.9863m 
  190.30000m   61.6092m  699.9863m 
  190.40000m   61.5517m  699.9862m 
  190.50000m   61.4942m  699.9861m 
  190.60000m   61.4367m  699.9861m 
  190.70000m   61.3792m  699.9860m 
  190.80000m   61.3218m  699.9860m 
  190.90000m   61.2644m  699.9859m 
  191.00000m   61.2071m  699.9858m 
  191.10000m   61.1498m  699.9858m 
  191.20000m   61.0925m  699.9857m 
  191.30000m   61.0352m  699.9857m 
  191.40000m   60.9780m  699.9856m 
  191.50000m   60.9208m  699.9855m 
  191.60000m   60.8636m  699.9855m 
  191.70000m   60.8065m  699.9854m 
  191.80000m   60.7494m  699.9854m 
  191.90000m   60.6923m  699.9853m 
  192.00000m   60.6353m  699.9852m 
  192.10000m   60.5783m  699.9852m 
  192.20000m   60.5213m  699.9851m 
  192.30000m   60.4643m  699.9850m 
  192.40000m   60.4074m  699.9850m 
  192.50000m   60.3505m  699.9849m 
  192.60000m   60.2937m  699.9849m 
  192.70000m   60.2369m  699.9848m 
  192.80000m   60.1801m  699.9847m 
  192.90000m   60.1233m  699.9847m 
  193.00000m   60.0666m  699.9846m 
  193.10000m   60.0099m  699.9845m 
  193.20000m   59.9533m  699.9845m 
  193.30000m   59.8966m  699.9844m 
  193.40000m   59.8400m  699.9843m 
  193.50000m   59.7835m  699.9843m 
  193.60000m   59.7269m  699.9842m 
  193.70000m   59.6704m  699.9841m 
  193.80000m   59.6140m  699.9841m 
  193.90000m   59.5575m  699.9840m 
  194.00000m   59.5011m  699.9839m 
  194.10000m   59.4447m  699.9839m 
  194.20000m   59.3884m  699.9838m 
  194.30000m   59.3321m  699.9837m 
  194.40000m   59.2758m  699.9837m 
  194.50000m   59.2195m  699.9836m 
  194.60000m   59.1633m  699.9835m 
  194.70000m   59.1071m  699.9834m 
  194.80000m   59.0510m  699.9834m 
  194.90000m   58.9948m  699.9833m 
  195.00000m   58.9387m  699.9832m 
  195.10000m   58.8827m  699.9832m 
  195.20000m   58.8267m  699.9831m 
  195.30000m   58.7707m  699.9830m 
  195.40000m   58.7147m  699.9829m 
  195.50000m   58.6587m  699.9829m 
  195.60000m   58.6028m  699.9828m 
  195.70000m   58.5470m  699.9827m 
  195.80000m   58.4911m  699.9827m 
  195.90000m   58.4353m  699.9826m 
  196.00000m   58.3795m  699.9825m 
  196.10000m   58.3238m  699.9824m 
  196.20000m   58.2681m  699.9824m 
  196.30000m   58.2124m  699.9823m 
  196.40000m   58.1567m  699.9822m 
  196.50000m   58.1011m  699.9821m 
  196.60000m   58.0455m  699.9821m 
  196.70000m   57.9899m  699.9820m 
  196.80000m   57.9344m  699.9819m 
  196.90000m   57.8789m  699.9818m 
  197.00000m   57.8234m  699.9818m 
  197.10000m   57.7680m  699.9817m 
  197.20000m   57.7126m  699.9816m 
  197.30000m   57.6572m  699.9815m 
  197.40000m   57.6019m  699.9814m 
  197.50000m   57.5466m  699.9814m 
  197.60000m   57.4913m  699.9813m 
  197.70000m   57.4360m  699.9812m 
  197.80000m   57.3808m  699.9811m 
  197.90000m   57.3256m  699.9810m 
  198.00000m   57.2705m  699.9810m 
  198.10000m   57.2154m  699.9809m 
  198.20000m   57.1603m  699.9808m 
  198.30000m   57.1052m  699.9807m 
  198.40000m   57.0502m  699.9806m 
  198.50000m   56.9952m  699.9806m 
  198.60000m   56.9402m  699.9805m 
  198.70000m   56.8853m  699.9804m 
  198.80000m   56.8303m  699.9803m 
  198.90000m   56.7755m  699.9802m 
  199.00000m   56.7206m  699.9801m 
  199.10000m   56.6658m  699.9801m 
  199.20000m   56.6110m  699.9800m 
  199.30000m   56.5563m  699.9799m 
  199.40000m   56.5016m  699.9798m 
  199.50000m   56.4469m  699.9797m 
  199.60000m   56.3922m  699.9796m 
  199.70000m   56.3376m  699.9795m 
  199.80000m   56.2830m  699.9795m 
  199.90000m   56.2284m  699.9794m 
  200.00000m   56.1739m  699.9793m 
  200.10000m   56.1194m  699.9792m 
  200.20000m   56.0649m  699.9791m 
  200.30000m   56.0105m  699.9790m 
  200.40000m   55.9560m  699.9789m 
  200.50000m   55.9017m  699.9788m 
  200.60000m   55.8473m  699.9787m 
  200.70000m   55.7930m  699.9787m 
  200.80000m   55.7387m  699.9786m 
  200.90000m   55.6845m  699.9785m 
  201.00000m   55.6302m  699.9784m 
  201.10000m   55.5760m  699.9783m 
  201.20000m   55.5219m  699.9782m 
  201.30000m   55.4677m  699.9781m 
  201.40000m   55.4136m  699.9780m 
  201.50000m   55.3596m  699.9779m 
  201.60000m   55.3055m  699.9778m 
  201.70000m   55.2515m  699.9777m 
  201.80000m   55.1975m  699.9776m 
  201.90000m   55.1436m  699.9775m 
  202.00000m   55.0897m  699.9774m 
  202.10000m   55.0358m  699.9773m 
  202.20000m   54.9819m  699.9772m 
  202.30000m   54.9281m  699.9771m 
  202.40000m   54.8743m  699.9771m 
  202.50000m   54.8205m  699.9770m 
  202.60000m   54.7668m  699.9769m 
  202.70000m   54.7131m  699.9768m 
  202.80000m   54.6594m  699.9767m 
  202.90000m   54.6058m  699.9766m 
  203.00000m   54.5522m  699.9765m 
  203.10000m   54.4986m  699.9764m 
  203.20000m   54.4451m  699.9763m 
  203.30000m   54.3915m  699.9762m 
  203.40000m   54.3381m  699.9761m 
  203.50000m   54.2846m  699.9760m 
  203.60000m   54.2312m  699.9758m 
  203.70000m   54.1778m  699.9757m 
  203.80000m   54.1244m  699.9756m 
  203.90000m   54.0711m  699.9755m 
  204.00000m   54.0178m  699.9754m 
  204.10000m   53.9645m  699.9753m 
  204.20000m   53.9113m  699.9752m 
  204.30000m   53.8581m  699.9751m 
  204.40000m   53.8049m  699.9750m 
  204.50000m   53.7517m  699.9749m 
  204.60000m   53.6986m  699.9748m 
  204.70000m   53.6455m  699.9747m 
  204.80000m   53.5925m  699.9746m 
  204.90000m   53.5394m  699.9745m 
  205.00000m   53.4864m  699.9744m 
  205.10000m   53.4335m  699.9743m 
  205.20000m   53.3805m  699.9741m 
  205.30000m   53.3276m  699.9740m 
  205.40000m   53.2748m  699.9739m 
  205.50000m   53.2219m  699.9738m 
  205.60000m   53.1691m  699.9737m 
  205.70000m   53.1163m  699.9736m 
  205.80000m   53.0636m  699.9735m 
  205.90000m   53.0109m  699.9734m 
  206.00000m   52.9582m  699.9732m 
  206.10000m   52.9055m  699.9731m 
  206.20000m   52.8529m  699.9730m 
  206.30000m   52.8003m  699.9729m 
  206.40000m   52.7477m  699.9728m 
  206.50000m   52.6952m  699.9727m 
  206.60000m   52.6427m  699.9726m 
  206.70000m   52.5902m  699.9724m 
  206.80000m   52.5377m  699.9723m 
  206.90000m   52.4853m  699.9722m 
  207.00000m   52.4329m  699.9721m 
  207.10000m   52.3806m  699.9720m 
  207.20000m   52.3283m  699.9718m 
  207.30000m   52.2760m  699.9717m 
  207.40000m   52.2237m  699.9716m 
  207.50000m   52.1715m  699.9715m 
  207.60000m   52.1193m  699.9714m 
  207.70000m   52.0671m  699.9712m 
  207.80000m   52.0150m  699.9711m 
  207.90000m   51.9628m  699.9710m 
  208.00000m   51.9108m  699.9709m 
  208.10000m   51.8587m  699.9707m 
  208.20000m   51.8067m  699.9706m 
  208.30000m   51.7547m  699.9705m 
  208.40000m   51.7027m  699.9704m 
  208.50000m   51.6508m  699.9702m 
  208.60000m   51.5989m  699.9701m 
  208.70000m   51.5470m  699.9700m 
  208.80000m   51.4952m  699.9699m 
  208.90000m   51.4434m  699.9697m 
  209.00000m   51.3916m  699.9696m 
  209.10000m   51.3399m  699.9695m 
  209.20000m   51.2882m  699.9693m 
  209.30000m   51.2365m  699.9692m 
  209.40000m   51.1848m  699.9691m 
  209.50000m   51.1332m  699.9689m 
  209.60000m   51.0816m  699.9688m 
  209.70000m   51.0300m  699.9687m 
  209.80000m   50.9785m  699.9685m 
  209.90000m   50.9270m  699.9684m 
  210.00000m   50.8755m  699.9683m 
  210.10000m   50.8241m  699.9681m 
  210.20000m   50.7727m  699.9680m 
  210.30000m   50.7213m  699.9679m 
  210.40000m   50.6699m  699.9677m 
  210.50000m   50.6186m  699.9676m 
  210.60000m   50.5673m  699.9674m 
  210.70000m   50.5160m  699.9673m 
  210.80000m   50.4648m  699.9672m 
  210.90000m   50.4136m  699.9670m 
  211.00000m   50.3624m  699.9669m 
  211.10000m   50.3113m  699.9667m 
  211.20000m   50.2602m  699.9666m 
  211.30000m   50.2091m  699.9664m 
  211.40000m   50.1580m  699.9663m 
  211.50000m   50.1070m  699.9662m 
  211.60000m   50.0560m  699.9660m 
  211.70000m   50.0051m  699.9659m 
  211.80000m   49.9541m  699.9657m 
  211.90000m   49.9032m  699.9656m 
  212.00000m   49.8524m  699.9654m 
  212.10000m   49.8015m  699.9653m 
  212.20000m   49.7507m  699.9651m 
  212.30000m   49.6999m  699.9650m 
  212.40000m   49.6492m  699.9648m 
  212.50000m   49.5985m  699.9647m 
  212.60000m   49.5478m  699.9645m 
  212.70000m   49.4971m  699.9644m 
  212.80000m   49.4465m  699.9642m 
  212.90000m   49.3959m  699.9641m 
  213.00000m   49.3453m  699.9639m 
  213.10000m   49.2948m  699.9638m 
  213.20000m   49.2443m  699.9636m 
  213.30000m   49.1938m  699.9634m 
  213.40000m   49.1433m  699.9633m 
  213.50000m   49.0929m  699.9631m 
  213.60000m   49.0425m  699.9630m 
  213.70000m   48.9922m  699.9628m 
  213.80000m   48.9418m  699.9627m 
  213.90000m   48.8915m  699.9625m 
  214.00000m   48.8413m  699.9623m 
  214.10000m   48.7910m  699.9622m 
  214.20000m   48.7408m  699.9620m 
  214.30000m   48.6906m  699.9618m 
  214.40000m   48.6405m  699.9617m 
  214.50000m   48.5904m  699.9615m 
  214.60000m   48.5403m  699.9614m 
  214.70000m   48.4902m  699.9612m 
  214.80000m   48.4402m  699.9610m 
  214.90000m   48.3902m  699.9609m 
  215.00000m   48.3402m  699.9607m 
  215.10000m   48.2903m  699.9605m 
  215.20000m   48.2404m  699.9603m 
  215.30000m   48.1905m  699.9602m 
  215.40000m   48.1406m  699.9600m 
  215.50000m   48.0908m  699.9598m 
  215.60000m   48.0410m  699.9597m 
  215.70000m   47.9913m  699.9595m 
  215.80000m   47.9415m  699.9593m 
  215.90000m   47.8918m  699.9591m 
  216.00000m   47.8422m  699.9590m 
  216.10000m   47.7925m  699.9588m 
  216.20000m   47.7429m  699.9586m 
  216.30000m   47.6933m  699.9584m 
  216.40000m   47.6438m  699.9582m 
  216.50000m   47.5943m  699.9581m 
  216.60000m   47.5448m  699.9579m 
  216.70000m   47.4953m  699.9577m 
  216.80000m   47.4459m  699.9575m 
  216.90000m   47.3965m  699.9573m 
  217.00000m   47.3471m  699.9572m 
  217.10000m   47.2977m  699.9570m 
  217.20000m   47.2484m  699.9568m 
  217.30000m   47.1992m  699.9566m 
  217.40000m   47.1499m  699.9564m 
[...]
  657.90000m   68.2087n  126.6558m 
  658.00000m   67.9465n  126.6320m 
  658.10000m   67.6853n  126.6081m 
  658.20000m   67.4252n  126.5843m 
  658.30000m   67.1661n  126.5605m 
  658.40000m   66.9081n  126.5368m 
  658.50000m   66.6511n  126.5130m 
  658.60000m   66.3951n  126.4893m 
  658.70000m   66.1401n  126.4656m 
  658.80000m   65.8861n  126.4419m 
  658.90000m   65.6331n  126.4182m 
  659.00000m   65.3812n  126.3946m 
  659.10000m   65.1302n  126.3709m 
  659.20000m   64.8802n  126.3473m 
  659.30000m   64.6313n  126.3238m 
  659.40000m   64.3833n  126.3002m 
  659.50000m   64.1363n  126.2766m 
  659.60000m   63.8903n  126.2531m 
  659.70000m   63.6452n  126.2296m 
  659.80000m   63.4012n  126.2061m 
  659.90000m   63.1581n  126.1827m 
  660.00000m   62.9159n  126.1592m 
  660.10000m   62.6748n  126.1358m 
  660.20000m   62.4346n  126.1124m 
  660.30000m   62.1953n  126.0890m 
  660.40000m   61.9570n  126.0656m 
  660.50000m   61.7196n  126.0423m 
  660.60000m   61.4832n  126.0190m 
  660.70000m   61.2477n  125.9957m 
  660.80000m   61.0132n  125.9724m 
  660.90000m   60.7796n  125.9491m 
  661.00000m   60.5469n  125.9259m 
  661.10000m   60.3151n  125.9026m 
  661.20000m   60.0843n  125.8794m 
  661.30000m   59.8543n  125.8563m 
  661.40000m   59.6253n  125.8331m 
  661.50000m   59.3972n  125.8100m 
  661.60000m   59.1700n  125.7868m 
  661.70000m   58.9437n  125.7637m 
  661.80000m   58.7183n  125.7406m 
  661.90000m   58.4938n  125.7176m 
  662.00000m   58.2702n  125.6945m 
  662.10000m   58.0475n  125.6715m 
  662.20000m   57.8257n  125.6485m 
  662.30000m   57.6047n  125.6255m 
  662.40000m   57.3846n  125.6026m 
  662.50000m   57.1654n  125.5796m 
  662.60000m   56.9471n  125.5567m 
  662.70000m   56.7296n  125.5338m 
  662.80000m   56.5130n  125.5109m 
  662.90000m   56.2973n  125.4880m 
  663.00000m   56.0824n  125.4652m 
  663.10000m   55.8684n  125.4423m 
  663.20000m   55.6552n  125.4195m 
  663.30000m   55.4428n  125.3967m 
  663.40000m   55.2313n  125.3740m 
  663.50000m   55.0207n  125.3512m 
  663.60000m   54.8109n  125.3285m 
  663.70000m   54.6019n  125.3058m 
  663.80000m   54.3937n  125.2831m 
  663.90000m   54.1864n  125.2604m 
  664.00000m   53.9799n  125.2378m 
  664.10000m   53.7742n  125.2151m 
  664.20000m   53.5693n  125.1925m 
  664.30000m   53.3653n  125.1699m 
  664.40000m   53.1620n  125.1473m 
  664.50000m   52.9596n  125.1248m 
  664.60000m   52.7579n  125.1022m 
  664.70000m   52.5571n  125.0797m 
  664.80000m   52.3571n  125.0572m 
  664.90000m   52.1578n  125.0347m 
  665.00000m   51.9594n  125.0123m 
  665.10000m   51.7617n  124.9898m 
  665.20000m   51.5648n  124.9674m 
  665.30000m   51.3687n  124.9450m 
  665.40000m   51.1734n  124.9226m 
  665.50000m   50.9789n  124.9003m 
  665.60000m   50.7851n  124.8779m 
  665.70000m   50.5921n  124.8556m 
  665.80000m   50.3999n  124.8333m 
  665.90000m   50.2084n  124.8110m 
  666.00000m   50.0177n  124.7887m 
  666.10000m   49.8277n  124.7665m 
  666.20000m   49.6385n  124.7442m 
  666.30000m   49.4501n  124.7220m 
  666.40000m   49.2624n  124.6998m 
  666.50000m   49.0754n  124.6776m 
  666.60000m   48.8892n  124.6555m 
  666.70000m   48.7037n  124.6333m 
  666.80000m   48.5190n  124.6112m 
  666.90000m   48.3350n  124.5891m 
  667.00000m   48.1517n  124.5670m 
  667.10000m   47.9692n  124.5450m 
  667.20000m   47.7873n  124.5229m 
  667.30000m   47.6062n  124.5009m 
  667.40000m   47.4259n  124.4789m 
  667.50000m   47.2462n  124.4569m 
  667.60000m   47.0672n  124.4349m 
  667.70000m   46.8890n  124.4130m 
  667.80000m   46.7115n  124.3910m 
  667.90000m   46.5346n  124.3691m 
  668.00000m   46.3585n  124.3472m 
  668.10000m   46.1831n  124.3253m 
  668.20000m   46.0084n  124.3035m 
  668.30000m   45.8343n  124.2816m 
  668.40000m   45.6610n  124.2598m 
  668.50000m   45.4883n  124.2380m 
  668.60000m   45.3163n  124.2162m 
  668.70000m   45.1451n  124.1944m 
  668.80000m   44.9744n  124.1727m 
  668.90000m   44.8045n  124.1509m 
  669.00000m   44.6353n  124.1292m 
  669.10000m   44.4667n  124.1075m 
  669.20000m   44.2988n  124.0859m 
  669.30000m   44.1315n  124.0642m 
  669.40000m   43.9649n  124.0426m 
  669.50000m   43.7990n  124.0209m 
  669.60000m   43.6337n  123.9993m 
  669.70000m   43.4691n  123.9777m 
  669.80000m   43.3052n  123.9562m 
  669.90000m   43.1419n  123.9346m 
  670.00000m   42.9792n  123.9131m 
  670.10000m   42.8172n  123.8916m 
  670.20000m   42.6558n  123.8701m 
  670.30000m   42.4951n  123.8486m 
  670.40000m   42.3350n  123.8271m 
  670.50000m   42.1756n  123.8057m 
  670.60000m   42.0167n  123.7843m 
  670.70000m   41.8585n  123.7629m 
  670.80000m   41.7010n  123.7415m 
  670.90000m   41.5441n  123.7201m 
  671.00000m   41.3877n  123.6987m 
  671.10000m   41.2320n  123.6774m 
  671.20000m   41.0770n  123.6561m 
  671.30000m   40.9225n  123.6348m 
  671.40000m   40.7687n  123.6135m 
  671.50000m   40.6154n  123.5922m 
  671.60000m   40.4628n  123.5710m 
  671.70000m   40.3108n  123.5498m 
  671.80000m   40.1594n  123.5286m 
  671.90000m   40.0086n  123.5074m 
  672.00000m   39.8583n  123.4862m 
  672.10000m   39.7087n  123.4650m 
  672.20000m   39.5597n  123.4439m 
  672.30000m   39.4113n  123.4228m 
  672.40000m   39.2634n  123.4017m 
  672.50000m   39.1162n  123.3806m 
  672.60000m   38.9695n  123.3595m 
  672.70000m   38.8234n  123.3384m 
  672.80000m   38.6779n  123.3174m 
  672.90000m   38.5329n  123.2964m 
  673.00000m   38.3886n  123.2754m 
  673.10000m   38.2448n  123.2544m 
  673.20000m   38.1016n  123.2334m 
  673.30000m   37.9589n  123.2125m 
  673.40000m   37.8169n  123.1916m 
  673.50000m   37.6753n  123.1706m 
  673.60000m   37.5344n  123.1498m 
  673.70000m   37.3940n  123.1289m 
  673.80000m   37.2542n  123.1080m 
  673.90000m   37.1149n  123.0872m 
  674.00000m   36.9762n  123.0663m 
  674.10000m   36.8380n  123.0455m 
  674.20000m   36.7003n  123.0247m 
  674.30000m   36.5633n  123.0040m 
  674.40000m   36.4267n  122.9832m 
  674.50000m   36.2907n  122.9625m 
  674.60000m   36.1553n  122.9417m 
  674.70000m   36.0204n  122.9210m 
  674.80000m   35.8860n  122.9003m 
  674.90000m   35.7521n  122.8797m 
  675.00000m   35.6188n  122.8590m 
  675.10000m   35.4860n  122.8384m 
  675.20000m   35.3538n  122.8178m 
  675.30000m   35.2220n  122.7971m 
  675.40000m   35.0908n  122.7766m 
  675.50000m   34.9601n  122.7560m 
  675.60000m   34.8299n  122.7354m 
  675.70000m   34.7003n  122.7149m 
  675.80000m   34.5711n  122.6944m 
  675.90000m   34.4425n  122.6739m 
  676.00000m   34.3144n  122.6534m 
  676.10000m   34.1868n  122.6329m 
  676.20000m   34.0597n  122.6125m 
  676.30000m   33.9331n  122.5920m 
  676.40000m   33.8070n  122.5716m 
  676.50000m   33.6814n  122.5512m 
  676.60000m   33.5563n  122.5308m 
  676.70000m   33.4317n  122.5105m 
  676.80000m   33.3076n  122.4901m 
  676.90000m   33.1840n  122.4698m 
  677.00000m   33.0609n  122.4495m 
  677.10000m   32.9382n  122.4292m 
  677.20000m   32.8161n  122.4089m 
  677.30000m   32.6944n  122.3886m 
  677.40000m   32.5733n  122.3684m 
  677.50000m   32.4526n  122.3481m 
  677.60000m   32.3324n  122.3279m 
  677.70000m   32.2126n  122.3077m 
  677.80000m   32.0934n  122.2875m 
  677.90000m   31.9746n  122.2673m 
  678.00000m   31.8562n  122.2472m 
  678.10000m   31.7384n  122.2271m 
  678.20000m   31.6210n  122.2069m 
  678.30000m   31.5041n  122.1868m 
  678.40000m   31.3877n  122.1668m 
  678.50000m   31.2717n  122.1467m 
  678.60000m   31.1561n  122.1266m 
  678.70000m   31.0411n  122.1066m 
  678.80000m   30.9265n  122.0866m 
  678.90000m   30.8123n  122.0666m 
  679.00000m   30.6986n  122.0466m 
  679.10000m   30.5853n  122.0266m 
  679.20000m   30.4725n  122.0067m 
  679.30000m   30.3602n  121.9867m 
  679.40000m   30.2483n  121.9668m 
  679.50000m   30.1368n  121.9469m 
  679.60000m   30.0258n  121.9270m 
  679.70000m   29.9152n  121.9071m 
  679.80000m   29.8051n  121.8873m 
  679.90000m   29.6954n  121.8674m 
  680.00000m   29.5861n  121.8476m 
  680.10000m   29.4773n  121.8278m 
  680.20000m   29.3689n  121.8080m 
  680.30000m   29.2609n  121.7882m 
  680.40000m   29.1534n  121.7685m 
  680.50000m   29.0463n  121.7487m 
  680.60000m   28.9396n  121.7290m 
  680.70000m   28.8333n  121.7093m 
  680.80000m   28.7275n  121.6896m 
  680.90000m   28.6220n  121.6699m 
  681.00000m   28.5170n  121.6502m 
  681.10000m   28.4125n  121.6306m 
  681.20000m   28.3083n  121.6109m 
  681.30000m   28.2045n  121.5913m 
  681.40000m   28.1012n  121.5717m 
  681.50000m   27.9982n  121.5521m 
  681.60000m   27.8957n  121.5326m 
  681.70000m   27.7936n  121.5130m 
  681.80000m   27.6919n  121.4935m 
  681.90000m   27.5906n  121.4740m 
  682.00000m   27.4897n  121.4544m 
  682.10000m   27.3892n  121.4350m 
  682.20000m   27.2891n  121.4155m 
  682.30000m   27.1893n  121.3960m 
  682.40000m   27.0900n  121.3766m 
  682.50000m   26.9911n  121.3572m 
  682.60000m   26.8926n  121.3377m 
  682.70000m   26.7945n  121.3183m 
  682.80000m   26.6967n  121.2990m 
  682.90000m   26.5994n  121.2796m 
  683.00000m   26.5024n  121.2602m 
  683.10000m   26.4058n  121.2409m 
  683.20000m   26.3096n  121.2216m 
  683.30000m   26.2138n  121.2023m 
  683.40000m   26.1183n  121.1830m 
  683.50000m   26.0233n  121.1637m 
  683.60000m   25.9286n  121.1445m 
  683.70000m   25.8343n  121.1252m 
  683.80000m   25.7404n  121.1060m 
  683.90000m   25.6468n  121.0868m 
  684.00000m   25.5536n  121.0676m 
  684.10000m   25.4608n  121.0484m 
  684.20000m   25.3684n  121.0293m 
  684.30000m   25.2763n  121.0101m 
  684.40000m   25.1846n  120.9910m 
  684.50000m   25.0932n  120.9719m 
  684.60000m   25.0023n  120.9528m 
  684.70000m   24.9116n  120.9337m 
  684.80000m   24.8214n  120.9146m 
  684.90000m   24.7315n  120.8956m 
  685.00000m   24.6419n  120.8765m 
  685.10000m   24.5527n  120.8575m 
  685.20000m   24.4639n  120.8385m 
  685.30000m   24.3754n  120.8195m 
  685.40000m   24.2873n  120.8005m 
  685.50000m   24.1995n  120.7815m 
  685.60000m   24.1120n  120.7626m 
  685.70000m   24.0250n  120.7437m 
  685.80000m   23.9382n  120.7247m 
  685.90000m   23.8518n  120.7058m 
  686.00000m   23.7658n  120.6870m 
  686.10000m   23.6801n  120.6681m 
  686.20000m   23.5947n  120.6492m 
  686.30000m   23.5097n  120.6304m 
  686.40000m   23.4250n  120.6116m 
  686.50000m   23.3406n  120.5927m 
  686.60000m   23.2566n  120.5739m 
  686.70000m   23.1729n  120.5552m 
  686.80000m   23.0896n  120.5364m 
  686.90000m   23.0065n  120.5176m 
  687.00000m   22.9238n  120.4989m 
  687.10000m   22.8415n  120.4802m 
  687.20000m   22.7594n  120.4615m 
  687.30000m   22.6777n  120.4428m 
  687.40000m   22.5963n  120.4241m 
  687.50000m   22.5153n  120.4054m 
  687.60000m   22.4345n  120.3868m 
  687.70000m   22.3541n  120.3682m 
  687.80000m   22.2740n  120.3495m 
  687.90000m   22.1942n  120.3309m 
  688.00000m   22.1148n  120.3123m 
  688.10000m   22.0356n  120.2938m 
  688.20000m   21.9568n  120.2752m 
  688.30000m   21.8783n  120.2567m 
  688.40000m   21.8001n  120.2381m 
  688.50000m   21.7222n  120.2196m 
  688.60000m   21.6446n  120.2011m 
  688.70000m   21.5673n  120.1826m 
  688.80000m   21.4903n  120.1642m 
  688.90000m   21.4137n  120.1457m 
  689.00000m   21.3373n  120.1273m 
  689.10000m   21.2613n  120.1088m 
  689.20000m   21.1855n  120.0904m 
  689.30000m   21.1100n  120.0720m 
  689.40000m   21.0349n  120.0536m 
  689.50000m   20.9600n  120.0353m 
  689.60000m   20.8855n  120.0169m 
  689.70000m   20.8112n  119.9986m 
  689.80000m   20.7373n  119.9802m 
  689.90000m   20.6636n  119.9619m 
  690.00000m   20.5902n  119.9436m 
  690.10000m   20.5171n  119.9254m 
  690.20000m   20.4443n  119.9071m 
  690.30000m   20.3718n  119.8888m 
  690.40000m   20.2996n  119.8706m 
  690.50000m   20.2277n  119.8524m 
  690.60000m   20.1560n  119.8342m 
  690.70000m   20.0847n  119.8160m 
  690.80000m   20.0136n  119.7978m 
  690.90000m   19.9428n  119.7796m 
  691.00000m   19.8723n  119.7615m 
  691.10000m   19.8021n  119.7433m 
  691.20000m   19.7321n  119.7252m 
  691.30000m   19.6624n  119.7071m 
  691.40000m   19.5930n  119.6890m 
  691.50000m   19.5239n  119.6709m 
  691.60000m   19.4551n  119.6528m 
  691.70000m   19.3865n  119.6348m 
  691.80000m   19.3182n  119.6168m 
  691.90000m   19.2502n  119.5987m 
  692.00000m   19.1824n  119.5807m 
  692.10000m   19.1149n  119.5627m 
  692.20000m   19.0477n  119.5447m 
  692.30000m   18.9808n  119.5268m 
  692.40000m   18.9141n  119.5088m 
  692.50000m   18.8477n  119.4909m 
  692.60000m   18.7815n  119.4730m 
  692.70000m   18.7156n  119.4550m 
  692.80000m   18.6500n  119.4371m 
  692.90000m   18.5846n  119.4193m 
  693.00000m   18.5195n  119.4014m 
  693.10000m   18.4547n  119.3835m 
  693.20000m   18.3901n  119.3657m 
  693.30000m   18.3257n  119.3479m 
  693.40000m   18.2617n  119.3301m 
  693.50000m   18.1978n  119.3123m 
  693.60000m   18.1343n  119.2945m 
  693.70000m   18.0710n  119.2767m 
  693.80000m   18.0079n  119.2589m 
  693.90000m   17.9451n  119.2412m 
  694.00000m   17.8825n  119.2235m 
  694.10000m   17.8202n  119.2057m 
  694.20000m   17.7581n  119.1880m 
  694.30000m   17.6963n  119.1704m 
  694.40000m   17.6348n  119.1527m 
  694.50000m   17.5734n  119.1350m 
  694.60000m   17.5123n  119.1174m 
  694.70000m   17.4515n  119.0997m 
  694.80000m   17.3909n  119.0821m 
  694.90000m   17.3306n  119.0645m 
  695.00000m   17.2704n  119.0469m 
  695.10000m   17.2106n  119.0293m 
  695.20000m   17.1509n  119.0118m 
  695.30000m   17.0915n  118.9942m 
  695.40000m   17.0324n  118.9767m 
  695.50000m   16.9734n  118.9592m 
  695.60000m   16.9147n  118.9417m 
  695.70000m   16.8563n  118.9242m 
  695.80000m   16.7980n  118.9067m 
  695.90000m   16.7401n  118.8892m 
  696.00000m   16.6823n  118.8717m 
  696.10000m   16.6248n  118.8543m 
  696.20000m   16.5674n  118.8369m 
  696.30000m   16.5104n  118.8195m 
  696.40000m   16.4535n  118.8021m 
  696.50000m   16.3969n  118.7847m 
  696.60000m   16.3405n  118.7673m 
  696.70000m   16.2843n  118.7499m 
  696.80000m   16.2284n  118.7326m 
  696.90000m   16.1727n  118.7153m 
  697.00000m   16.1171n  118.6979m 
  697.10000m   16.0619n  118.6806m 
  697.20000m   16.0068n  118.6633m 
  697.30000m   15.9520n  118.6460m 
  697.40000m   15.8973n  118.6288m 
  697.50000m   15.8429n  118.6115m 
  697.60000m   15.7887n  118.5943m 
  697.70000m   15.7348n  118.5771m 
  697.80000m   15.6810n  118.5598m 
  697.90000m   15.6275n  118.5426m 
  698.00000m   15.5741n  118.5255m 
  698.10000m   15.5210n  118.5083m 
  698.20000m   15.4681n  118.4911m 
  698.30000m   15.4154n  118.4740m 
  698.40000m   15.3629n  118.4568m 
  698.50000m   15.3106n  118.4397m 
  698.60000m   15.2586n  118.4226m 
  698.70000m   15.2067n  118.4055m 
  698.80000m   15.1550n  118.3884m 
  698.90000m   15.1036n  118.3714m 
  699.00000m   15.0524n  118.3543m 
  699.10000m   15.0013n  118.3373m 
  699.20000m   14.9505n  118.3202m 
  699.30000m   14.8998n  118.3032m 
  699.40000m   14.8494n  118.2862m 
  699.50000m   14.7992n  118.2692m 
  699.60000m   14.7492n  118.2523m 
  699.70000m   14.6993n  118.2353m 
  699.80000m   14.6497n  118.2183m 
  699.90000m   14.6003n  118.2014m 
  700.00000m   14.5510n  118.1845m 
y
1****** HSPICE -- Q-2020.03-SP2-2 linux64 (Nov  1 2020) ******                  
 ******  
 .title write noise margin

 ****** operating point information tnom=  25.000 temp=  25.000 ******
 ****** operating point status is all       simulation time is     0.     
    node    =voltage      node    =voltage      node    =voltage

 +0:bl      =   0.      0:blb     = 700.0000m 0:gl      =   0.     
 +0:gr      =   0.      0:q       = 252.4796m 0:qb      = 700.0000m
 +0:vdd     = 700.0000m 0:wl      = 700.0000m 0:x       = 649.3706m


 **** voltage sources

 subckt                                                                    
 element  0:vbl      0:vblb     0:vgl      0:vgr      0:vvdd     0:vwl     
  volts      0.       700.0000m    0.         0.       700.0000m  700.0000m
  current   70.0000   -70.0000   138.1516f  354.4571f  -23.1808u -318.9971f
  power      0.        49.0000     0.         0.        16.2266u  223.2980f

     total voltage source power dissipation=   49.0000        watts




 **** mosfets


 subckt                                                                    
 element  0:mpr      0:mnr      0:mpl      0:mnl      0:mnpr     0:mnpl    
 model    0:pmos_sra 0:nmos_sra 0:pmos_sra 0:nmos_sra 0:nmos_sra 0:nmos_sra
 region   Saturation Cutoff     Linear     Cutoff     Linear     Cutoff    
  id       -23.1808u  472.3640f -874.1659f  678.4962f  -23.1808u  1.245e-19
  ibs        0.         0.         0.         0.         0.         0.     
  ibd        0.         0.         0.         0.         0.         0.     
  vgs     -700.0000m    0.      -700.0000m    0.       447.5204m    7.8167n
  vds     -447.5204m  252.4796m   -7.8167n  700.0000m -252.4796m    7.8167n
  vbs      -50.6294m  649.3706m  -50.6294m  649.3706m  396.8910m  -50.6294m
  vth     -332.7394m  409.1334m -339.1310m  406.6380m  409.1334m  410.1164m
  vdsat   -370.9173m   70.6690m -365.6435m   70.6690m  281.5298m   70.6690m
  vod     -367.2606m -409.1334m -360.8690m -406.6380m  290.8666m -410.1164m
  beta       1.6413m    2.1736m    1.6413m    2.1736m    2.1736m    2.1736m
  gam eff    0.         0.         0.         0.         0.         0.     
  gm        77.9288u   17.9667p    1.6380p   25.5583p   74.0352u    4.4652a
  gds       16.4370u  427.6720f  111.8329u  516.9756f   33.7974u   14.9555p
  gmb       64.8947p   12.2695a    1.6780a   17.3503a  171.0505p  1.370e-24
  cdtot     11.2160a   10.2225a   25.3299a   10.2225a   28.5485a   10.2225a
  cgtot     55.4959a   20.4450a   65.7671a   20.4450a   56.6592a   20.4450a
  cstot     29.8396a   10.2225a   25.3299a   10.2225a   14.2325a   10.2225a
  cbtot      0.         0.         0.         0.         0.         0.     
  cgs       44.2874a   10.2225a   32.8836a   10.2225a   15.4024a   10.2225a
  cgd       11.2085a   10.2225a   32.8836a   10.2225a   41.2569a   10.2225a




          ***** job concluded
 ******  
 .title write noise margin

 ****** job statistics summary tnom=  25.000 temp=  25.000 ******
  
 ******  Machine Information  ******
 CPU:
 model name	: AMD EPYC 7713 64-Core Processor
 cpu MHz	: 2000.000
  
 OS:
 Linux version 3.10.0-1160.88.1.el7.x86_64 (mockbuild@kbuilder.bsys.centos.org) (gcc version 4.8.5 20150623 (Red Hat 4.8.5-44) (GCC) ) #1 SMP Tue Mar 7 15:41:52 UTC 2023


  ******  HSPICE Threads Information  ******

  Command Line Threads Count :     1
  Available CPU Count        :   256
  Actual Threads Count       :     1


  ******  Circuit Statistics  ******
  # nodes       =      10 # elements   =      14
  # resistors   =       0 # capacitors =       2 # inductors   =       0
  # mutual_inds =       0 # vccs       =       0 # vcvs        =       0
  # cccs        =       0 # ccvs       =       0 # volt_srcs   =       6
  # curr_srcs   =       0 # diodes     =       0 # bjts        =       0
  # jfets       =       0 # mosfets    =       6 # U elements  =       0
  # T elements  =       0 # W elements =       0 # B elements  =       0
  # S elements  =       0 # P elements =       0 # va device   =       0
  # vector_srcs =       0 # N elements =       0


  ******  Runtime Statistics (seconds)  ******

  analysis           time    # points   tot. iter  conv.iter
  op point           0.01           1          13
  dc sweep           0.70        7001       21013
  readin             0.01
  errchk             0.00
  setup              0.00
  output             0.00


           peak memory used        401.11 megabytes
           total cpu time            0.76 seconds
           total elapsed time        0.93 seconds
           job started at     21:42:18 03/19/2025
           job ended   at     21:42:19 03/19/2025
           job total runtime         0.93 seconds


 lic: Release hspice token(s) 
 lic: total license checkout elapse time:        0.16(s)
