 ****** HSPICE -- Q-2020.03-SP2-2 linux64 (Nov  1 2020) ******                  
  Copyright (c) 1986 - 2025 by Synopsys, Inc. All Rights Reserved.              
  This software and the associated documentation are proprietary
  to Synopsys, Inc. This software may only be used in accordance
  with the terms and conditions of a written license agreement with
  Synopsys, Inc. All other use, reproduction, or distribution of
  this software is strictly prohibited.
  Input File: SRAM_RSNM_FF.sp                                                   
  Command line options: /RAID2/cad/synopsys/hspice/2020.03-sp2-2/hspice/linux64/hspice -i SRAM_RSNM_FF.sp -o SRAM_RSNM_FF.lis
  Start time: Sun Mar 23 13:54:09 2025
 lic:  
 lic: FLEXlm: SDK_12.6 
 lic: USER:   es25MCS042           HOSTNAME: ee28 
 lic: HOSTID: "d85ed3efc19a"       PID:      139738 
 lic: Using FLEXlm license file: 
 lic: 26585@lshc 
 lic: Checkout 1 hspice 
 lic: License/Maintenance for hspice will expire on 14-may-2025/2024.09 
 lic: 180(in_use)/1100(total) FLOATING license(s) on SERVER 26585@lshc 
 lic:   
  
      
             
 Warning:'Floating bulk' occurs 1 times
 Summary of floating bulk:
 -----------------------
 |Node      |Device    |
 |----------+----------|
 |x         |mpr       |
 -----------------------
              
 *****************************************************************
 ******  option summary
 ******
 runlvl  = 3         bypass  = 2.0000    
 ******
 .title noise margin in read operation

 ****** dc transfer curves tnom=  25.000 temp=  25.000 ******
x

 volt         voltage    voltage    voltage    voltage   
             q          qb         gl         gr         
 -494.97475m  109.8281m  700.0000m   -8.7592n  809.8281m 
 -494.87475m  109.8379m  700.0000m  141.4126u  809.6965m 
 -494.77475m  109.8477m  700.0000m  282.8339u  809.5648m 
 -494.67475m  109.8575m  700.0000m  424.2552u  809.4332m 
 -494.57475m  109.8673m  700.0000m  565.6765u  809.3016m 
 -494.47475m  109.8771m  700.0000m  707.0978u  809.1700m 
 -494.37475m  109.8870m  700.0000m  848.5191u  809.0384m 
 -494.27475m  109.8968m  700.0000m  989.9404u  808.9068m 
 -494.17475m  109.9066m  700.0000m    1.1314m  808.7753m 
 -494.07475m  109.9165m  700.0000m    1.2728m  808.6437m 
 -493.97475m  109.9263m  700.0000m    1.4142m  808.5121m 
 -493.87475m  109.9362m  700.0000m    1.5556m  808.3806m 
 -493.77475m  109.9461m  700.0000m    1.6970m  808.2490m 
 -493.67475m  109.9560m  700.0000m    1.8385m  808.1175m 
 -493.57475m  109.9659m  700.0000m    1.9799m  807.9860m 
 -493.47475m  109.9758m  700.0000m    2.1213m  807.8544m 
 -493.37475m  109.9857m  700.0000m    2.2627m  807.7229m 
 -493.27475m  109.9956m  700.0000m    2.4042m  807.5914m 
 -493.17475m  110.0055m  700.0000m    2.5456m  807.4599m 
 -493.07475m  110.0154m  700.0000m    2.6870m  807.3284m 
 -492.97475m  110.0253m  700.0000m    2.8284m  807.1969m 
 -492.87475m  110.0353m  700.0000m    2.9698m  807.0654m 
 -492.77475m  110.0452m  700.0000m    3.1113m  806.9340m 
 -492.67475m  110.0552m  700.0000m    3.2527m  806.8025m 
 -492.57475m  110.0652m  700.0000m    3.3941m  806.6710m 
 -492.47475m  110.0751m  700.0000m    3.5355m  806.5396m 
 -492.37475m  110.0851m  700.0000m    3.6769m  806.4082m 
 -492.27475m  110.0951m  700.0000m    3.8184m  806.2767m 
 -492.17475m  110.1051m  700.0000m    3.9598m  806.1453m 
 -492.07475m  110.1151m  700.0000m    4.1012m  806.0139m 
 -491.97475m  110.1251m  700.0000m    4.2426m  805.8825m 
 -491.87475m  110.1351m  700.0000m    4.3841m  805.7511m 
 -491.77475m  110.1451m  700.0000m    4.5255m  805.6197m 
 -491.67475m  110.1552m  700.0000m    4.6669m  805.4883m 
 -491.57475m  110.1652m  700.0000m    4.8083m  805.3569m 
 -491.47475m  110.1753m  700.0000m    4.9497m  805.2255m 
 -491.37475m  110.1853m  700.0000m    5.0912m  805.0941m 
 -491.27475m  110.1954m  700.0000m    5.2326m  804.9628m 
 -491.17475m  110.2054m  700.0000m    5.3740m  804.8314m 
 -491.07475m  110.2155m  700.0000m    5.5154m  804.7001m 
 -490.97475m  110.2256m  700.0000m    5.6568m  804.5687m 
 -490.87475m  110.2357m  700.0000m    5.7983m  804.4374m 
 -490.77475m  110.2458m  700.0000m    5.9397m  804.3061m 
 -490.67475m  110.2559m  700.0000m    6.0811m  804.1748m 
 -490.57475m  110.2660m  700.0000m    6.2225m  804.0435m 
 -490.47475m  110.2761m  700.0000m    6.3640m  803.9122m 
 -490.37475m  110.2863m  700.0000m    6.5054m  803.7809m 
 -490.27475m  110.2964m  700.0000m    6.6468m  803.6496m 
 -490.17475m  110.3066m  700.0000m    6.7882m  803.5183m 
 -490.07475m  110.3167m  700.0000m    6.9296m  803.3871m 
 -489.97475m  110.3269m  700.0000m    7.0711m  803.2558m 
 -489.87475m  110.3370m  700.0000m    7.2125m  803.1246m 
 -489.77475m  110.3472m  700.0000m    7.3539m  802.9933m 
 -489.67475m  110.3574m  700.0000m    7.4953m  802.8621m 
 -489.57475m  110.3676m  700.0000m    7.6367m  802.7308m 
 -489.47475m  110.3778m  700.0000m    7.7782m  802.5996m 
 -489.37475m  110.3880m  700.0000m    7.9196m  802.4684m 
 -489.27475m  110.3982m  700.0000m    8.0610m  802.3372m 
 -489.17475m  110.4084m  700.0000m    8.2024m  802.2060m 
 -489.07475m  110.4187m  700.0000m    8.3438m  802.0748m 
 -488.97475m  110.4289m  700.0000m    8.4853m  801.9436m 
 -488.87475m  110.4392m  700.0000m    8.6267m  801.8125m 
 -488.77475m  110.4494m  700.0000m    8.7681m  801.6813m 
 -488.67475m  110.4597m  700.0000m    8.9095m  801.5501m 
 -488.57475m  110.4699m  700.0000m    9.0510m  801.4190m 
 -488.47475m  110.4802m  700.0000m    9.1924m  801.2878m 
 -488.37475m  110.4905m  700.0000m    9.3338m  801.1567m 
 -488.27475m  110.5008m  700.0000m    9.4752m  801.0256m 
 -488.17475m  110.5111m  700.0000m    9.6166m  800.8944m 
 -488.07475m  110.5214m  700.0000m    9.7581m  800.7633m 
 -487.97475m  110.5317m  700.0000m    9.8995m  800.6322m 
 -487.87475m  110.5420m  700.0000m   10.0409m  800.5011m 
 -487.77475m  110.5524m  700.0000m   10.1823m  800.3700m 
 -487.67475m  110.5627m  700.0000m   10.3237m  800.2390m 
 -487.57475m  110.5731m  700.0000m   10.4652m  800.1079m 
 -487.47475m  110.5834m  700.0000m   10.6066m  799.9768m 
 -487.37475m  110.5938m  700.0000m   10.7480m  799.8458m 
 -487.27475m  110.6042m  700.0000m   10.8894m  799.7147m 
 -487.17475m  110.6145m  700.0000m   11.0309m  799.5837m 
 -487.07475m  110.6249m  700.0000m   11.1723m  799.4526m 
 -486.97475m  110.6353m  700.0000m   11.3137m  799.3216m 
 -486.87475m  110.6457m  700.0000m   11.4551m  799.1906m 
 -486.77475m  110.6561m  700.0000m   11.5965m  799.0596m 
 -486.67475m  110.6665m  700.0000m   11.7380m  798.9286m 
 -486.57475m  110.6770m  700.0000m   11.8794m  798.7976m 
 -486.47475m  110.6874m  700.0000m   12.0208m  798.6666m 
 -486.37475m  110.6979m  700.0000m   12.1622m  798.5356m 
 -486.27475m  110.7083m  700.0000m   12.3036m  798.4046m 
 -486.17475m  110.7188m  700.0000m   12.4451m  798.2737m 
 -486.07475m  110.7292m  700.0000m   12.5865m  798.1427m 
 -485.97475m  110.7397m  700.0000m   12.7279m  798.0118m 
 -485.87475m  110.7502m  700.0000m   12.8693m  797.8808m 
 -485.77475m  110.7607m  700.0000m   13.0108m  797.7499m 
 -485.67475m  110.7712m  700.0000m   13.1522m  797.6190m 
 -485.57475m  110.7817m  700.0000m   13.2936m  797.4881m 
 -485.47475m  110.7922m  700.0000m   13.4350m  797.3572m 
 -485.37475m  110.8027m  700.0000m   13.5764m  797.2263m 
 -485.27475m  110.8132m  700.0000m   13.7179m  797.0954m 
 -485.17475m  110.8238m  700.0000m   13.8593m  796.9645m 
 -485.07475m  110.8343m  700.0000m   14.0007m  796.8336m 
 -484.97475m  110.8449m  700.0000m   14.1421m  796.7027m 
 -484.87475m  110.8554m  700.0000m   14.2835m  796.5719m 
 -484.77475m  110.8660m  700.0000m   14.4250m  796.4410m 
 -484.67475m  110.8766m  700.0000m   14.5664m  796.3102m 
 -484.57475m  110.8872m  700.0000m   14.7078m  796.1794m 
 -484.47475m  110.8978m  700.0000m   14.8492m  796.0485m 
 -484.37475m  110.9084m  700.0000m   14.9906m  795.9177m 
 -484.27475m  110.9190m  700.0000m   15.1321m  795.7869m 
 -484.17475m  110.9296m  700.0000m   15.2735m  795.6561m 
 -484.07475m  110.9402m  700.0000m   15.4149m  795.5253m 
 -483.97475m  110.9509m  700.0000m   15.5563m  795.3945m 
 -483.87475m  110.9615m  700.0000m   15.6978m  795.2637m 
 -483.77475m  110.9722m  700.0000m   15.8392m  795.1330m 
 -483.67475m  110.9828m  700.0000m   15.9806m  795.0022m 
 -483.57475m  110.9935m  700.0000m   16.1220m  794.8715m 
 -483.47475m  111.0042m  700.0000m   16.2634m  794.7407m 
 -483.37475m  111.0149m  700.0000m   16.4049m  794.6100m 
 -483.27475m  111.0255m  700.0000m   16.5463m  794.4792m 
 -483.17475m  111.0362m  700.0000m   16.6877m  794.3485m 
 -483.07475m  111.0470m  700.0000m   16.8291m  794.2178m 
 -482.97475m  111.0577m  700.0000m   16.9705m  794.0871m 
 -482.87475m  111.0684m  700.0000m   17.1120m  793.9564m 
 -482.77475m  111.0791m  700.0000m   17.2534m  793.8257m 
 -482.67475m  111.0899m  700.0000m   17.3948m  793.6950m 
 -482.57475m  111.1006m  700.0000m   17.5362m  793.5644m 
 -482.47475m  111.1114m  700.0000m   17.6777m  793.4337m 
 -482.37475m  111.1221m  700.0000m   17.8191m  793.3031m 
 -482.27475m  111.1329m  700.0000m   17.9605m  793.1724m 
 -482.17475m  111.1437m  700.0000m   18.1019m  793.0418m 
 -482.07475m  111.1545m  700.0000m   18.2433m  792.9111m 
 -481.97475m  111.1653m  700.0000m   18.3848m  792.7805m 
 -481.87475m  111.1761m  700.0000m   18.5262m  792.6499m 
 -481.77475m  111.1869m  700.0000m   18.6676m  792.5193m 
 -481.67475m  111.1977m  700.0000m   18.8090m  792.3887m 
 -481.57475m  111.2086m  700.0000m   18.9504m  792.2581m 
 -481.47475m  111.2194m  700.0000m   19.0919m  792.1275m 
 -481.37475m  111.2303m  700.0000m   19.2333m  791.9970m 
 -481.27475m  111.2411m  700.0000m   19.3747m  791.8664m 
 -481.17475m  111.2520m  700.0000m   19.5161m  791.7358m 
 -481.07475m  111.2629m  700.0000m   19.6576m  791.6053m 
 -480.97475m  111.2737m  700.0000m   19.7990m  791.4747m 
 -480.87475m  111.2846m  700.0000m   19.9404m  791.3442m 
 -480.77475m  111.2955m  700.0000m   20.0818m  791.2137m 
 -480.67475m  111.3064m  700.0000m   20.2232m  791.0832m 
 -480.57475m  111.3173m  700.0000m   20.3647m  790.9527m 
 -480.47475m  111.3283m  700.0000m   20.5061m  790.8222m 
 -480.37475m  111.3392m  700.0000m   20.6475m  790.6917m 
 -480.27475m  111.3501m  700.0000m   20.7889m  790.5612m 
 -480.17475m  111.3611m  700.0000m   20.9303m  790.4307m 
 -480.07475m  111.3721m  700.0000m   21.0718m  790.3003m 
 -479.97475m  111.3830m  700.0000m   21.2132m  790.1698m 
 -479.87475m  111.3940m  700.0000m   21.3546m  790.0394m 
 -479.77475m  111.4050m  700.0000m   21.4960m  789.9089m 
 -479.67475m  111.4160m  700.0000m   21.6374m  789.7785m 
 -479.57475m  111.4270m  700.0000m   21.7789m  789.6481m 
 -479.47475m  111.4380m  700.0000m   21.9203m  789.5177m 
 -479.37475m  111.4490m  700.0000m   22.0617m  789.3873m 
 -479.27475m  111.4600m  700.0000m   22.2031m  789.2569m 
 -479.17475m  111.4710m  700.0000m   22.3446m  789.1265m 
 -479.07475m  111.4821m  700.0000m   22.4860m  788.9961m 
 -478.97475m  111.4931m  700.0000m   22.6274m  788.8657m 
 -478.87475m  111.5042m  700.0000m   22.7688m  788.7354m 
 -478.77475m  111.5153m  700.0000m   22.9102m  788.6050m 
 -478.67475m  111.5263m  700.0000m   23.0517m  788.4747m 
 -478.57475m  111.5374m  700.0000m   23.1931m  788.3443m 
 -478.47475m  111.5485m  700.0000m   23.3345m  788.2140m 
 -478.37475m  111.5596m  700.0000m   23.4759m  788.0837m 
 -478.27475m  111.5707m  700.0000m   23.6173m  787.9534m 
 -478.17475m  111.5819m  700.0000m   23.7588m  787.8231m 
 -478.07475m  111.5930m  700.0000m   23.9002m  787.6928m 
 -477.97475m  111.6041m  700.0000m   24.0416m  787.5625m 
 -477.87475m  111.6153m  700.0000m   24.1830m  787.4322m 
 -477.77475m  111.6264m  700.0000m   24.3245m  787.3019m 
 -477.67475m  111.6376m  700.0000m   24.4659m  787.1717m 
 -477.57475m  111.6487m  700.0000m   24.6073m  787.0414m 
 -477.47475m  111.6599m  700.0000m   24.7487m  786.9112m 
 -477.37475m  111.6711m  700.0000m   24.8901m  786.7810m 
 -477.27475m  111.6823m  700.0000m   25.0316m  786.6507m 
 -477.17475m  111.6935m  700.0000m   25.1730m  786.5205m 
 -477.07475m  111.7047m  700.0000m   25.3144m  786.3903m 
 -476.97475m  111.7159m  700.0000m   25.4558m  786.2601m 
 -476.87475m  111.7272m  700.0000m   25.5972m  786.1299m 
 -476.77475m  111.7384m  700.0000m   25.7387m  785.9997m 
 -476.67475m  111.7497m  700.0000m   25.8801m  785.8696m 
 -476.57475m  111.7609m  700.0000m   26.0215m  785.7394m 
 -476.47475m  111.7722m  700.0000m   26.1629m  785.6092m 
 -476.37475m  111.7835m  700.0000m   26.3044m  785.4791m 
 -476.27475m  111.7947m  700.0000m   26.4458m  785.3489m 
 -476.17475m  111.8060m  700.0000m   26.5872m  785.2188m 
 -476.07475m  111.8173m  700.0000m   26.7286m  785.0887m 
 -475.97475m  111.8286m  700.0000m   26.8700m  784.9586m 
 -475.87475m  111.8400m  700.0000m   27.0115m  784.8285m 
 -475.77475m  111.8513m  700.0000m   27.1529m  784.6984m 
 -475.67475m  111.8626m  700.0000m   27.2943m  784.5683m 
 -475.57475m  111.8740m  700.0000m   27.4357m  784.4382m 
 -475.47475m  111.8853m  700.0000m   27.5771m  784.3082m 
 -475.37475m  111.8967m  700.0000m   27.7186m  784.1781m 
 -475.27475m  111.9081m  700.0000m   27.8600m  784.0480m 
 -475.17475m  111.9194m  700.0000m   28.0014m  783.9180m 
 -475.07475m  111.9308m  700.0000m   28.1428m  783.7880m 
 -474.97475m  111.9422m  700.0000m   28.2842m  783.6579m 
 -474.87475m  111.9536m  700.0000m   28.4257m  783.5279m 
 -474.77475m  111.9650m  700.0000m   28.5671m  783.3979m 
 -474.67475m  111.9765m  700.0000m   28.7085m  783.2679m 
 -474.57475m  111.9879m  700.0000m   28.8499m  783.1379m 
 -474.47475m  111.9993m  700.0000m   28.9914m  783.0080m 
 -474.37475m  112.0108m  700.0000m   29.1328m  782.8780m 
 -474.27475m  112.0222m  700.0000m   29.2742m  782.7480m 
 -474.17475m  112.0337m  700.0000m   29.4156m  782.6181m 
 -474.07475m  112.0452m  700.0000m   29.5570m  782.4881m 
 -473.97475m  112.0567m  700.0000m   29.6985m  782.3582m 
 -473.87475m  112.0682m  700.0000m   29.8399m  782.2283m 
 -473.77475m  112.0797m  700.0000m   29.9813m  782.0983m 
 -473.67475m  112.0912m  700.0000m   30.1227m  781.9684m 
 -473.57475m  112.1027m  700.0000m   30.2641m  781.8385m 
 -473.47475m  112.1142m  700.0000m   30.4056m  781.7086m 
 -473.37475m  112.1258m  700.0000m   30.5470m  781.5788m 
 -473.27475m  112.1373m  700.0000m   30.6884m  781.4489m 
 -473.17475m  112.1489m  700.0000m   30.8298m  781.3190m 
 -473.07475m  112.1604m  700.0000m   30.9713m  781.1892m 
 -472.97475m  112.1720m  700.0000m   31.1127m  781.0593m 
 -472.87475m  112.1836m  700.0000m   31.2541m  780.9295m 
 -472.77475m  112.1952m  700.0000m   31.3955m  780.7996m 
 -472.67475m  112.2068m  700.0000m   31.5369m  780.6698m 
 -472.57475m  112.2184m  700.0000m   31.6784m  780.5400m 
 -472.47475m  112.2300m  700.0000m   31.8198m  780.4102m 
 -472.37475m  112.2416m  700.0000m   31.9612m  780.2804m 
 -472.27475m  112.2533m  700.0000m   32.1026m  780.1506m 
 -472.17475m  112.2649m  700.0000m   32.2440m  780.0209m 
 -472.07475m  112.2766m  700.0000m   32.3855m  779.8911m 
 -471.97475m  112.2883m  700.0000m   32.5269m  779.7613m 
 -471.87475m  112.2999m  700.0000m   32.6683m  779.6316m 
 -471.77475m  112.3116m  700.0000m   32.8097m  779.5019m 
 -471.67475m  112.3233m  700.0000m   32.9511m  779.3721m 
 -471.57475m  112.3350m  700.0000m   33.0926m  779.2424m 
 -471.47475m  112.3467m  700.0000m   33.2340m  779.1127m 
 -471.37475m  112.3584m  700.0000m   33.3754m  778.9830m 
 -471.27475m  112.3702m  700.0000m   33.5168m  778.8533m 
 -471.17475m  112.3819m  700.0000m   33.6583m  778.7236m 
 -471.07475m  112.3936m  700.0000m   33.7997m  778.5939m 
 -470.97475m  112.4054m  700.0000m   33.9411m  778.4643m 
 -470.87475m  112.4172m  700.0000m   34.0825m  778.3346m 
 -470.77475m  112.4289m  700.0000m   34.2239m  778.2050m 
 -470.67475m  112.4407m  700.0000m   34.3654m  778.0753m 
 -470.57475m  112.4525m  700.0000m   34.5068m  777.9457m 
 -470.47475m  112.4643m  700.0000m   34.6482m  777.8161m 
 -470.37475m  112.4761m  700.0000m   34.7896m  777.6865m 
 -470.27475m  112.4879m  700.0000m   34.9310m  777.5569m 
 -470.17475m  112.4998m  700.0000m   35.0725m  777.4273m 
 -470.07475m  112.5116m  700.0000m   35.2139m  777.2977m 
 -469.97475m  112.5235m  700.0000m   35.3553m  777.1681m 
 -469.87475m  112.5353m  700.0000m   35.4967m  777.0386m 
 -469.77475m  112.5472m  700.0000m   35.6382m  776.9090m 
 -469.67475m  112.5591m  700.0000m   35.7796m  776.7795m 
 -469.57475m  112.5709m  700.0000m   35.9210m  776.6499m 
 -469.47475m  112.5828m  700.0000m   36.0624m  776.5204m 
 -469.37475m  112.5947m  700.0000m   36.2038m  776.3909m 
 -469.27475m  112.6067m  700.0000m   36.3453m  776.2614m 
 -469.17475m  112.6186m  700.0000m   36.4867m  776.1319m 
 -469.07475m  112.6305m  700.0000m   36.6281m  776.0024m 
 -468.97475m  112.6425m  700.0000m   36.7695m  775.8729m 
 -468.87475m  112.6544m  700.0000m   36.9109m  775.7434m 
 -468.77475m  112.6664m  700.0000m   37.0524m  775.6140m 
 -468.67475m  112.6783m  700.0000m   37.1938m  775.4845m 
 -468.57475m  112.6903m  700.0000m   37.3352m  775.3551m 
 -468.47475m  112.7023m  700.0000m   37.4766m  775.2256m 
 -468.37475m  112.7143m  700.0000m   37.6180m  775.0962m 
 -468.27475m  112.7263m  700.0000m   37.7595m  774.9668m 
 -468.17475m  112.7383m  700.0000m   37.9009m  774.8374m 
 -468.07475m  112.7503m  700.0000m   38.0423m  774.7080m 
 -467.97475m  112.7624m  700.0000m   38.1837m  774.5786m 
 -467.87475m  112.7744m  700.0000m   38.3252m  774.4492m 
 -467.77475m  112.7865m  700.0000m   38.4666m  774.3199m 
 -467.67475m  112.7985m  700.0000m   38.6080m  774.1905m 
 -467.57475m  112.8106m  700.0000m   38.7494m  774.0612m 
 -467.47475m  112.8227m  700.0000m   38.8908m  773.9318m 
 -467.37475m  112.8348m  700.0000m   39.0323m  773.8025m 
 -467.27475m  112.8469m  700.0000m   39.1737m  773.6732m 
 -467.17475m  112.8590m  700.0000m   39.3151m  773.5438m 
 -467.07475m  112.8711m  700.0000m   39.4565m  773.4145m 
 -466.97475m  112.8832m  700.0000m   39.5979m  773.2853m 
 -466.87475m  112.8954m  700.0000m   39.7394m  773.1560m 
 -466.77475m  112.9075m  700.0000m   39.8808m  773.0267m 
 -466.67475m  112.9197m  700.0000m   40.0222m  772.8974m 
 -466.57475m  112.9318m  700.0000m   40.1636m  772.7682m 
 -466.47475m  112.9440m  700.0000m   40.3050m  772.6389m 
 -466.37475m  112.9562m  700.0000m   40.4465m  772.5097m 
 -466.27475m  112.9684m  700.0000m   40.5879m  772.3805m 
 -466.17475m  112.9806m  700.0000m   40.7293m  772.2513m 
 -466.07475m  112.9928m  700.0000m   40.8707m  772.1220m 
 -465.97475m  113.0050m  700.0000m   41.0122m  771.9929m 
 -465.87475m  113.0173m  700.0000m   41.1536m  771.8637m 
 -465.77475m  113.0295m  700.0000m   41.2950m  771.7345m 
 -465.67475m  113.0418m  700.0000m   41.4364m  771.6053m 
 -465.57475m  113.0540m  700.0000m   41.5778m  771.4762m 
 -465.47475m  113.0663m  700.0000m   41.7193m  771.3470m 
 -465.37475m  113.0786m  700.0000m   41.8607m  771.2179m 
 -465.27475m  113.0909m  700.0000m   42.0021m  771.0887m 
 -465.17475m  113.1032m  700.0000m   42.1435m  770.9596m 
 -465.07475m  113.1155m  700.0000m   42.2849m  770.8305m 
 -464.97475m  113.1278m  700.0000m   42.4264m  770.7014m 
 -464.87475m  113.1401m  700.0000m   42.5678m  770.5723m 
 -464.77475m  113.1525m  700.0000m   42.7092m  770.4432m 
 -464.67475m  113.1648m  700.0000m   42.8506m  770.3142m 
 -464.57475m  113.1772m  700.0000m   42.9921m  770.1851m 
 -464.47475m  113.1896m  700.0000m   43.1335m  770.0560m 
 -464.37475m  113.2019m  700.0000m   43.2749m  769.9270m 
 -464.27475m  113.2143m  700.0000m   43.4163m  769.7980m 
 -464.17475m  113.2267m  700.0000m   43.5577m  769.6689m 
 -464.07475m  113.2391m  700.0000m   43.6992m  769.5399m 
 -463.97475m  113.2516m  700.0000m   43.8406m  769.4109m 
 -463.87475m  113.2640m  700.0000m   43.9820m  769.2819m 
 -463.77475m  113.2764m  700.0000m   44.1234m  769.1530m 
 -463.67475m  113.2889m  700.0000m   44.2648m  769.0240m 
 -463.57475m  113.3013m  700.0000m   44.4063m  768.8950m 
 -463.47475m  113.3138m  700.0000m   44.5477m  768.7661m 
 -463.37475m  113.3263m  700.0000m   44.6891m  768.6371m 
 -463.27475m  113.3387m  700.0000m   44.8305m  768.5082m 
 -463.17475m  113.3512m  700.0000m   44.9719m  768.3793m 
 -463.07475m  113.3637m  700.0000m   45.1134m  768.2503m 
 -462.97475m  113.3763m  700.0000m   45.2548m  768.1214m 
 -462.87475m  113.3888m  700.0000m   45.3962m  767.9925m 
 -462.77475m  113.4013m  700.0000m   45.5376m  767.8636m 
 -462.67475m  113.4139m  700.0000m   45.6791m  767.7348m 
 -462.57475m  113.4264m  700.0000m   45.8205m  767.6059m 
 -462.47475m  113.4390m  700.0000m   45.9619m  767.4771m 
 -462.37475m  113.4516m  700.0000m   46.1033m  767.3482m 
 -462.27475m  113.4642m  700.0000m   46.2447m  767.2194m 
 -462.17475m  113.4767m  700.0000m   46.3862m  767.0905m 
 -462.07475m  113.4893m  700.0000m   46.5276m  766.9617m 
 -461.97475m  113.5020m  700.0000m   46.6690m  766.8329m 
 -461.87475m  113.5146m  700.0000m   46.8104m  766.7041m 
 -461.77475m  113.5272m  700.0000m   46.9518m  766.5753m 
 -461.67475m  113.5399m  700.0000m   47.0933m  766.4466m 
 -461.57475m  113.5525m  700.0000m   47.2347m  766.3178m 
 -461.47475m  113.5652m  700.0000m   47.3761m  766.1890m 
 -461.37475m  113.5779m  700.0000m   47.5175m  766.0603m 
 -461.27475m  113.5905m  700.0000m   47.6589m  765.9315m 
 -461.17475m  113.6032m  700.0000m   47.8004m  765.8028m 
 -461.07475m  113.6159m  699.9999m   47.9418m  765.6741m 
 -460.97475m  113.6287m  699.9999m   48.0832m  765.5454m 
 -460.87475m  113.6414m  699.9999m   48.2246m  765.4167m 
 -460.77475m  113.6541m  699.9999m   48.3661m  765.2880m 
 -460.67475m  113.6669m  699.9999m   48.5075m  765.1593m 
 -460.57475m  113.6796m  699.9999m   48.6489m  765.0307m 
 -460.47475m  113.6924m  699.9999m   48.7903m  764.9020m 
 -460.37475m  113.7052m  699.9999m   48.9317m  764.7734m 
 -460.27475m  113.7179m  699.9999m   49.0732m  764.6447m 
 -460.17475m  113.7307m  699.9999m   49.2146m  764.5161m 
 -460.07475m  113.7435m  699.9999m   49.3560m  764.3875m 
 -459.97475m  113.7564m  699.9999m   49.4974m  764.2589m 
 -459.87475m  113.7692m  699.9999m   49.6388m  764.1303m 
 -459.77475m  113.7820m  699.9999m   49.7803m  764.0017m 
 -459.67475m  113.7949m  699.9999m   49.9217m  763.8731m 
 -459.57475m  113.8077m  699.9999m   50.0631m  763.7446m 
 -459.47475m  113.8206m  699.9999m   50.2045m  763.6160m 
 -459.37475m  113.8335m  699.9999m   50.3459m  763.4875m 
 -459.27475m  113.8463m  699.9999m   50.4874m  763.3589m 
 -459.17475m  113.8592m  699.9999m   50.6288m  763.2304m 
 -459.07475m  113.8722m  699.9999m   50.7702m  763.1019m 
 -458.97475m  113.8851m  699.9999m   50.9116m  762.9734m 
 -458.87475m  113.8980m  699.9999m   51.0531m  762.8449m 
 -458.77475m  113.9109m  699.9999m   51.1945m  762.7164m 
 -458.67475m  113.9239m  699.9999m   51.3359m  762.5879m 
 -458.57475m  113.9368m  699.9999m   51.4773m  762.4595m 
 -458.47475m  113.9498m  699.9999m   51.6187m  762.3310m 
 -458.37475m  113.9628m  699.9999m   51.7602m  762.2026m 
 -458.27475m  113.9758m  699.9999m   51.9016m  762.0741m 
 -458.17475m  113.9888m  699.9999m   52.0430m  761.9457m 
 -458.07475m  114.0018m  699.9999m   52.1844m  761.8173m 
 -457.97475m  114.0148m  699.9999m   52.3258m  761.6889m 
 -457.87475m  114.0278m  699.9999m   52.4673m  761.5605m 
 -457.77475m  114.0409m  699.9999m   52.6087m  761.4321m 
 -457.67475m  114.0539m  699.9999m   52.7501m  761.3038m 
 -457.57475m  114.0670m  699.9999m   52.8915m  761.1754m 
 -457.47475m  114.0801m  699.9999m   53.0329m  761.0470m 
 -457.37475m  114.0931m  699.9999m   53.1744m  760.9187m 
 -457.27475m  114.1062m  699.9999m   53.3158m  760.7904m 
 -457.17475m  114.1193m  699.9999m   53.4572m  760.6621m 
 -457.07475m  114.1324m  699.9999m   53.5986m  760.5338m 
 -456.97475m  114.1456m  699.9999m   53.7401m  760.4055m 
 -456.87475m  114.1587m  699.9999m   53.8815m  760.2772m 
 -456.77475m  114.1718m  699.9999m   54.0229m  760.1489m 
 -456.67475m  114.1850m  699.9999m   54.1643m  760.0206m 
 -456.57475m  114.1982m  699.9999m   54.3057m  759.8924m 
 -456.47475m  114.2113m  699.9999m   54.4472m  759.7641m 
 -456.37475m  114.2245m  699.9999m   54.5886m  759.6359m 
 -456.27475m  114.2377m  699.9999m   54.7300m  759.5077m 
 -456.17475m  114.2509m  699.9999m   54.8714m  759.3794m 
 -456.07475m  114.2642m  699.9999m   55.0128m  759.2512m 
 -455.97475m  114.2774m  699.9999m   55.1543m  759.1231m 
 -455.87475m  114.2906m  699.9999m   55.2957m  758.9949m 
 -455.77475m  114.3039m  699.9999m   55.4371m  758.8667m 
 -455.67475m  114.3171m  699.9999m   55.5785m  758.7385m 
 -455.57475m  114.3304m  699.9999m   55.7199m  758.6104m 
 -455.47475m  114.3437m  699.9999m   55.8614m  758.4822m 
 -455.37475m  114.3570m  699.9999m   56.0028m  758.3541m 
 -455.27475m  114.3703m  699.9999m   56.1442m  758.2260m 
 -455.17475m  114.3836m  699.9999m   56.2856m  758.0979m 
 -455.07475m  114.3969m  699.9999m   56.4271m  757.9698m 
 -454.97475m  114.4102m  699.9999m   56.5685m  757.8417m 
 -454.87475m  114.4236m  699.9999m   56.7099m  757.7136m 
 -454.77475m  114.4369m  699.9999m   56.8513m  757.5856m 
 -454.67475m  114.4503m  699.9999m   56.9927m  757.4575m 
 -454.57475m  114.4637m  699.9999m   57.1342m  757.3295m 
 -454.47475m  114.4771m  699.9999m   57.2756m  757.2014m 
 -454.37475m  114.4905m  699.9999m   57.4170m  757.0734m 
 -454.27475m  114.5039m  699.9999m   57.5584m  756.9454m 
 -454.17475m  114.5173m  699.9999m   57.6998m  756.8174m 
 -454.07475m  114.5307m  699.9999m   57.8413m  756.6894m 
 -453.97475m  114.5442m  699.9999m   57.9827m  756.5614m 
 -453.87475m  114.5576m  699.9999m   58.1241m  756.4334m 
 -453.77475m  114.5711m  699.9999m   58.2655m  756.3055m 
 -453.67475m  114.5845m  699.9999m   58.4069m  756.1775m 
 -453.57475m  114.5980m  699.9999m   58.5484m  756.0496m 
 -453.47475m  114.6115m  699.9999m   58.6898m  755.9217m 
 -453.37475m  114.6250m  699.9999m   58.8312m  755.7937m 
 -453.27475m  114.6385m  699.9999m   58.9726m  755.6658m 
 -453.17475m  114.6521m  699.9999m   59.1140m  755.5379m 
 -453.07475m  114.6656m  699.9999m   59.2555m  755.4101m 
 -452.97475m  114.6792m  699.9999m   59.3969m  755.2822m 
 -452.87475m  114.6927m  699.9999m   59.5383m  755.1543m 
 -452.77475m  114.7063m  699.9999m   59.6797m  755.0265m 
 -452.67475m  114.7199m  699.9999m   59.8212m  754.8986m 
 -452.57475m  114.7335m  699.9999m   59.9626m  754.7708m 
 -452.47475m  114.7471m  699.9999m   60.1040m  754.6430m 
 -452.37475m  114.7607m  699.9999m   60.2454m  754.5152m 
 -452.27475m  114.7743m  699.9999m   60.3868m  754.3874m 
 -452.17475m  114.7879m  699.9999m   60.5283m  754.2596m 
 -452.07475m  114.8016m  699.9999m   60.6697m  754.1318m 
 -451.97475m  114.8152m  699.9999m   60.8111m  754.0041m 
 -451.87475m  114.8289m  699.9999m   60.9525m  753.8763m 
 -451.77475m  114.8426m  699.9999m   61.0939m  753.7486m 
 -451.67475m  114.8563m  699.9999m   61.2354m  753.6208m 
 -451.57475m  114.8700m  699.9999m   61.3768m  753.4931m 
 -451.47475m  114.8837m  699.9999m   61.5182m  753.3654m 
 -451.37475m  114.8974m  699.9999m   61.6596m  753.2377m 
 -451.27475m  114.9111m  699.9999m   61.8010m  753.1100m 
 -451.17475m  114.9249m  699.9999m   61.9425m  752.9823m 
 -451.07475m  114.9386m  699.9999m   62.0839m  752.8547m 
 -450.97475m  114.9524m  699.9999m   62.2253m  752.7270m 
 -450.87475m  114.9662m  699.9999m   62.3667m  752.5994m 
 -450.77475m  114.9800m  699.9999m   62.5082m  752.4717m 
 -450.67475m  114.9938m  699.9999m   62.6496m  752.3441m 
 -450.57475m  115.0076m  699.9999m   62.7910m  752.2165m 
 -450.47475m  115.0214m  699.9999m   62.9324m  752.0889m 
 -450.37475m  115.0352m  699.9999m   63.0738m  751.9613m 
 -450.27475m  115.0491m  699.9999m   63.2153m  751.8337m 
 -450.17475m  115.0629m  699.9999m   63.3567m  751.7062m 
 -450.07475m  115.0768m  699.9999m   63.4981m  751.5786m 
 -449.97475m  115.0907m  699.9999m   63.6395m  751.4511m 
 -449.87475m  115.1046m  699.9999m   63.7809m  751.3235m 
 -449.77475m  115.1185m  699.9999m   63.9224m  751.1960m 
 -449.67475m  115.1324m  699.9999m   64.0638m  751.0685m 
 -449.57475m  115.1463m  699.9999m   64.2052m  750.9410m 
 -449.47475m  115.1602m  699.9999m   64.3466m  750.8135m 
 -449.37475m  115.1742m  699.9999m   64.4880m  750.6860m 
 -449.27475m  115.1881m  699.9999m   64.6295m  750.5586m 
 -449.17475m  115.2021m  699.9999m   64.7709m  750.4311m 
 -449.07475m  115.2161m  699.9999m   64.9123m  750.3037m 
 -448.97475m  115.2301m  699.9999m   65.0537m  750.1762m 
 -448.87475m  115.2441m  699.9999m   65.1951m  750.0488m 
 -448.77475m  115.2581m  699.9999m   65.3366m  749.9214m 
 -448.67475m  115.2721m  699.9999m   65.4780m  749.7940m 
 -448.57475m  115.2861m  699.9999m   65.6194m  749.6666m 
 -448.47475m  115.3002m  699.9999m   65.7608m  749.5392m 
 -448.37475m  115.3142m  699.9999m   65.9023m  749.4119m 
 -448.27475m  115.3283m  699.9999m   66.0437m  749.2845m 
 -448.17475m  115.3424m  699.9999m   66.1851m  749.1572m 
 -448.07475m  115.3565m  699.9999m   66.3265m  749.0298m 
 -447.97475m  115.3706m  699.9999m   66.4679m  748.9025m 
 -447.87475m  115.3847m  699.9999m   66.6094m  748.7752m 
 -447.77475m  115.3988m  699.9999m   66.7508m  748.6479m 
 -447.67475m  115.4129m  699.9999m   66.8922m  748.5206m 
 -447.57475m  115.4271m  699.9999m   67.0336m  748.3934m 
 -447.47475m  115.4412m  699.9999m   67.1750m  748.2661m 
 -447.37475m  115.4554m  699.9999m   67.3165m  748.1388m 
 -447.27475m  115.4696m  699.9999m   67.4579m  748.0116m 
 -447.17475m  115.4838m  699.9999m   67.5993m  747.8844m 
 -447.07475m  115.4980m  699.9999m   67.7407m  747.7572m 
 -446.97475m  115.5122m  699.9999m   67.8821m  747.6300m 
 -446.87475m  115.5264m  699.9999m   68.0236m  747.5028m 
 -446.77475m  115.5407m  699.9999m   68.1650m  747.3756m 
 -446.67475m  115.5549m  699.9999m   68.3064m  747.2484m 
 -446.57475m  115.5692m  699.9999m   68.4478m  747.1212m 
 -446.47475m  115.5835m  699.9999m   68.5892m  746.9941m 
 -446.37475m  115.5977m  699.9999m   68.7307m  746.8670m 
 -446.27475m  115.6120m  699.9999m   68.8721m  746.7398m 
 -446.17475m  115.6263m  699.9999m   69.0135m  746.6127m 
 -446.07475m  115.6407m  699.9999m   69.1549m  746.4856m 
 -445.97475m  115.6550m  699.9999m   69.2963m  746.3585m 
 -445.87475m  115.6693m  699.9999m   69.4378m  746.2314m 
 -445.77475m  115.6837m  699.9999m   69.5792m  746.1044m 
 -445.67475m  115.6980m  699.9999m   69.7206m  745.9773m 
 -445.57475m  115.7124m  699.9999m   69.8620m  745.8503m 
 -445.47475m  115.7268m  699.9999m   70.0035m  745.7232m 
 -445.37475m  115.7412m  699.9999m   70.1449m  745.5962m 
 -445.27475m  115.7556m  699.9999m   70.2863m  745.4692m 
 -445.17475m  115.7700m  699.9999m   70.4277m  745.3422m 
 -445.07475m  115.7845m  699.9999m   70.5691m  745.2152m 
 -444.97475m  115.7989m  699.9999m   70.7106m  745.0882m 
 -444.87475m  115.8134m  699.9999m   70.8520m  744.9613m 
 -444.77475m  115.8279m  699.9999m   70.9934m  744.8343m 
 -444.67475m  115.8423m  699.9999m   71.1348m  744.7074m 
 -444.57475m  115.8568m  699.9999m   71.2762m  744.5805m 
 -444.47475m  115.8713m  699.9999m   71.4177m  744.4535m 
 -444.37475m  115.8858m  699.9999m   71.5591m  744.3266m 
 -444.27475m  115.9004m  699.9999m   71.7005m  744.1997m 
 -444.17475m  115.9149m  699.9999m   71.8419m  744.0729m 
 -444.07475m  115.9295m  699.9999m   71.9833m  743.9460m 
 -443.97475m  115.9440m  699.9999m   72.1248m  743.8191m 
 -443.87475m  115.9586m  699.9999m   72.2662m  743.6923m 
 -443.77475m  115.9732m  699.9999m   72.4076m  743.5655m 
 -443.67475m  115.9878m  699.9999m   72.5490m  743.4386m 
 -443.57475m  116.0024m  699.9999m   72.6904m  743.3118m 
 -443.47475m  116.0170m  699.9999m   72.8319m  743.1850m 
 -443.37475m  116.0317m  699.9999m   72.9733m  743.0582m 
 -443.27475m  116.0463m  699.9999m   73.1147m  742.9315m 
 -443.17475m  116.0610m  699.9999m   73.2561m  742.8047m 
 -443.07475m  116.0756m  699.9999m   73.3975m  742.6779m 
 -442.97475m  116.0903m  699.9999m   73.5390m  742.5512m 
 -442.87475m  116.1050m  699.9999m   73.6804m  742.4245m 
 -442.77475m  116.1197m  699.9999m   73.8218m  742.2978m 
 -442.67475m  116.1344m  699.9999m   73.9632m  742.1711m 
 -442.57475m  116.1491m  699.9999m   74.1047m  742.0444m 
 -442.47475m  116.1639m  699.9999m   74.2461m  741.9177m 
 -442.37475m  116.1786m  699.9999m   74.3875m  741.7910m 
 -442.27475m  116.1934m  699.9999m   74.5289m  741.6644m 
 -442.17475m  116.2082m  699.9999m   74.6703m  741.5377m 
 -442.07475m  116.2230m  699.9999m   74.8118m  741.4111m 
 -441.97475m  116.2378m  699.9999m   74.9532m  741.2845m 
 -441.87475m  116.2526m  699.9999m   75.0946m  741.1578m 
 -441.77475m  116.2674m  699.9999m   75.2360m  741.0312m 
 -441.67475m  116.2822m  699.9999m   75.3774m  740.9047m 
 -441.57475m  116.2971m  699.9999m   75.5189m  740.7781m 
 -441.47475m  116.3120m  699.9999m   75.6603m  740.6515m 
 -441.37475m  116.3268m  699.9999m   75.8017m  740.5250m 
 -441.27475m  116.3417m  699.9998m   75.9431m  740.3984m 
 -441.17475m  116.3566m  699.9998m   76.0845m  740.2719m 
 -441.07475m  116.3715m  699.9998m   76.2260m  740.1454m 
 -440.97475m  116.3864m  699.9998m   76.3674m  740.0189m 
 -440.87475m  116.4014m  699.9998m   76.5088m  739.8924m 
 -440.77475m  116.4163m  699.9998m   76.6502m  739.7659m 
 -440.67475m  116.4313m  699.9998m   76.7916m  739.6395m 
 -440.57475m  116.4462m  699.9998m   76.9331m  739.5130m 
 -440.47475m  116.4612m  699.9998m   77.0745m  739.3866m 
 -440.37475m  116.4762m  699.9998m   77.2159m  739.2602m 
 -440.27475m  116.4912m  699.9998m   77.3573m  739.1337m 
 -440.17475m  116.5062m  699.9998m   77.4987m  739.0073m 
 -440.07475m  116.5213m  699.9998m   77.6402m  738.8809m 
 -439.97475m  116.5363m  699.9998m   77.7816m  738.7546m 
 -439.87475m  116.5514m  699.9998m   77.9230m  738.6282m 
 -439.77475m  116.5664m  699.9998m   78.0644m  738.5018m 
 -439.67475m  116.5815m  699.9998m   78.2058m  738.3755m 
 -439.57475m  116.5966m  699.9998m   78.3473m  738.2492m 
 -439.47475m  116.6117m  699.9998m   78.4887m  738.1229m 
 -439.37475m  116.6268m  699.9998m   78.6301m  737.9965m 
 -439.27475m  116.6420m  699.9998m   78.7715m  737.8703m 
 -439.17475m  116.6571m  699.9998m   78.9129m  737.7440m 
 -439.07475m  116.6722m  699.9998m   79.0544m  737.6177m 
 -438.97475m  116.6874m  699.9998m   79.1958m  737.4914m 
 -438.87475m  116.7026m  699.9998m   79.3372m  737.3652m 
 -438.77475m  116.7178m  699.9998m   79.4786m  737.2390m 
 -438.67475m  116.7330m  699.9998m   79.6200m  737.1128m 
 -438.57475m  116.7482m  699.9998m   79.7615m  736.9865m 
 -438.47475m  116.7634m  699.9998m   79.9029m  736.8604m 
 -438.37475m  116.7787m  699.9998m   80.0443m  736.7342m 
 -438.27475m  116.7939m  699.9998m   80.1857m  736.6080m 
 -438.17475m  116.8092m  699.9998m   80.3272m  736.4818m 
 -438.07475m  116.8244m  699.9998m   80.4686m  736.3557m 
 -437.97475m  116.8397m  699.9998m   80.6100m  736.2296m 
 -437.87475m  116.8550m  699.9998m   80.7514m  736.1034m 
 -437.77475m  116.8704m  699.9998m   80.8928m  735.9773m 
 -437.67475m  116.8857m  699.9998m   81.0343m  735.8512m 
 -437.57475m  116.9010m  699.9998m   81.1757m  735.7252m 
 -437.47475m  116.9164m  699.9998m   81.3171m  735.5991m 
 -437.37475m  116.9317m  699.9998m   81.4585m  735.4730m 
 -437.27475m  116.9471m  699.9998m   81.5999m  735.3470m 
 -437.17475m  116.9625m  699.9998m   81.7414m  735.2209m 
 -437.07475m  116.9779m  699.9998m   81.8828m  735.0949m 
 -436.97475m  116.9933m  699.9998m   82.0242m  734.9689m 
 -436.87475m  117.0087m  699.9998m   82.1656m  734.8429m 
 -436.77475m  117.0242m  699.9998m   82.3070m  734.7169m 
 -436.67475m  117.0396m  699.9998m   82.4485m  734.5910m 
 -436.57475m  117.0551m  699.9998m   82.5899m  734.4650m 
 -436.47475m  117.0706m  699.9998m   82.7313m  734.3391m 
 -436.37475m  117.0861m  699.9998m   82.8727m  734.2131m 
 -436.27475m  117.1016m  699.9998m   83.0141m  734.0872m 
 -436.17475m  117.1171m  699.9998m   83.1556m  733.9613m 
 -436.07475m  117.1326m  699.9998m   83.2970m  733.8354m 
 -435.97475m  117.1481m  699.9998m   83.4384m  733.7095m 
 -435.87475m  117.1637m  699.9998m   83.5798m  733.5837m 
 -435.77475m  117.1793m  699.9998m   83.7212m  733.4578m 
 -435.67475m  117.1948m  699.9998m   83.8627m  733.3320m 
 -435.57475m  117.2104m  699.9998m   84.0041m  733.2061m 
 -435.47475m  117.2260m  699.9998m   84.1455m  733.0803m 
 -435.37475m  117.2416m  699.9998m   84.2869m  732.9545m 
 -435.27475m  117.2573m  699.9998m   84.4283m  732.8287m 
 -435.17475m  117.2729m  699.9998m   84.5698m  732.7029m 
 -435.07475m  117.2886m  699.9998m   84.7112m  732.5772m 
 -434.97475m  117.3042m  699.9998m   84.8526m  732.4514m 
 -434.87475m  117.3199m  699.9998m   84.9940m  732.3257m 
 -434.77475m  117.3356m  699.9998m   85.1354m  732.1999m 
 -434.67475m  117.3513m  699.9998m   85.2769m  732.0742m 
 -434.57475m  117.3670m  699.9998m   85.4183m  731.9485m 
 -434.47475m  117.3828m  699.9998m   85.5597m  731.8228m 
 -434.37475m  117.3985m  699.9998m   85.7011m  731.6972m 
 -434.27475m  117.4143m  699.9998m   85.8425m  731.5715m 
 -434.17475m  117.4300m  699.9998m   85.9840m  731.4458m 
 -434.07475m  117.4458m  699.9998m   86.1254m  731.3202m 
 -433.97475m  117.4616m  699.9998m   86.2668m  731.1946m 
 -433.87475m  117.4774m  699.9998m   86.4082m  731.0690m 
 -433.77475m  117.4932m  699.9998m   86.5496m  730.9434m 
 -433.67475m  117.5091m  699.9998m   86.6911m  730.8178m 
 -433.57475m  117.5249m  699.9998m   86.8325m  730.6922m 
 -433.47475m  117.5408m  699.9998m   86.9739m  730.5666m 
 -433.37475m  117.5566m  699.9998m   87.1153m  730.4411m 
 -433.27475m  117.5725m  699.9998m   87.2567m  730.3156m 
 -433.17475m  117.5884m  699.9998m   87.3982m  730.1900m 
 -433.07475m  117.6043m  699.9998m   87.5396m  730.0645m 
 -432.97475m  117.6203m  699.9998m   87.6810m  729.9390m 
 -432.87475m  117.6362m  699.9998m   87.8224m  729.8135m 
 -432.77475m  117.6522m  699.9998m   87.9638m  729.6881m 
 -432.67475m  117.6681m  699.9998m   88.1053m  729.5626m 
 -432.57475m  117.6841m  699.9998m   88.2467m  729.4372m 
 -432.47475m  117.7001m  699.9998m   88.3881m  729.3117m 
 -432.37475m  117.7161m  699.9998m   88.5295m  729.1863m 
 -432.27475m  117.7321m  699.9997m   88.6709m  729.0609m 
 -432.17475m  117.7481m  699.9997m   88.8124m  728.9355m 
 -432.07475m  117.7642m  699.9997m   88.9538m  728.8101m 
 -431.97475m  117.7802m  699.9997m   89.0952m  728.6848m 
 -431.87475m  117.7963m  699.9997m   89.2366m  728.5594m 
 -431.77475m  117.8124m  699.9997m   89.3780m  728.4341m 
 -431.67475m  117.8285m  699.9997m   89.5195m  728.3088m 
 -431.57475m  117.8446m  699.9997m   89.6609m  728.1834m 
 -431.47475m  117.8607m  699.9997m   89.8023m  728.0581m 
 -431.37475m  117.8768m  699.9997m   89.9437m  727.9329m 
 -431.27475m  117.8930m  699.9997m   90.0851m  727.8076m 
 -431.17475m  117.9092m  699.9997m   90.2266m  727.6823m 
 -431.07475m  117.9253m  699.9997m   90.3680m  727.5571m 
 -430.97475m  117.9415m  699.9997m   90.5094m  727.4318m 
 -430.87475m  117.9577m  699.9997m   90.6508m  727.3066m 
 -430.77475m  117.9739m  699.9997m   90.7922m  727.1814m 
 -430.67475m  117.9902m  699.9997m   90.9337m  727.0562m 
 -430.57475m  118.0064m  699.9997m   91.0751m  726.9310m 
 -430.47475m  118.0227m  699.9997m   91.2165m  726.8059m 
 -430.37475m  118.0389m  699.9997m   91.3579m  726.6807m 
 -430.27475m  118.0552m  699.9997m   91.4993m  726.5556m 
 -430.17475m  118.0715m  699.9997m   91.6408m  726.4305m 
 -430.07475m  118.0878m  699.9997m   91.7822m  726.3053m 
 -429.97475m  118.1041m  699.9997m   91.9236m  726.1802m 
 -429.87475m  118.1205m  699.9997m   92.0650m  726.0552m 
 -429.77475m  118.1368m  699.9997m   92.2064m  725.9301m 
 -429.67475m  118.1532m  699.9997m   92.3479m  725.8050m 
 -429.57475m  118.1695m  699.9997m   92.4893m  725.6800m 
 -429.47475m  118.1859m  699.9997m   92.6307m  725.5549m 
 -429.37475m  118.2023m  699.9997m   92.7721m  725.4299m 
 -429.27475m  118.2187m  699.9997m   92.9135m  725.3049m 
 -429.17475m  118.2352m  699.9997m   93.0550m  725.1799m 
 -429.07475m  118.2516m  699.9997m   93.1964m  725.0549m 
 -428.97475m  118.2681m  699.9997m   93.3378m  724.9300m 
 -428.87475m  118.2845m  699.9997m   93.4792m  724.8050m 
 -428.77475m  118.3010m  699.9997m   93.6206m  724.6801m 
 -428.67475m  118.3175m  699.9997m   93.7621m  724.5552m 
 -428.57475m  118.3340m  699.9997m   93.9035m  724.4302m 
 -428.47475m  118.3506m  699.9997m   94.0449m  724.3054m 
 -428.37475m  118.3671m  699.9997m   94.1863m  724.1805m 
 -428.27475m  118.3836m  699.9997m   94.3277m  724.0556m 
 -428.17475m  118.4002m  699.9997m   94.4691m  723.9307m 
 -428.07475m  118.4168m  699.9997m   94.6106m  723.8059m 
 -427.97475m  118.4334m  699.9997m   94.7520m  723.6811m 
 -427.87475m  118.4500m  699.9997m   94.8934m  723.5562m 
 -427.77475m  118.4666m  699.9997m   95.0348m  723.4314m 
 -427.67475m  118.4832m  699.9997m   95.1762m  723.3067m 
 -427.57475m  118.4999m  699.9997m   95.3177m  723.1819m 
 -427.47475m  118.5165m  699.9997m   95.4591m  723.0571m 
 -427.37475m  118.5332m  699.9997m   95.6005m  722.9324m 
 -427.27475m  118.5499m  699.9997m   95.7419m  722.8076m 
 -427.17475m  118.5666m  699.9997m   95.8833m  722.6829m 
 -427.07475m  118.5833m  699.9997m   96.0248m  722.5582m 
 -426.97475m  118.6000m  699.9997m   96.1662m  722.4335m 
 -426.87475m  118.6168m  699.9997m   96.3076m  722.3088m 
 -426.77475m  118.6335m  699.9997m   96.4490m  722.1842m 
 -426.67475m  118.6503m  699.9997m   96.5904m  722.0595m 
 -426.57475m  118.6671m  699.9997m   96.7319m  721.9349m 
 -426.47475m  118.6839m  699.9997m   96.8733m  721.8103m 
 -426.37475m  118.7007m  699.9996m   97.0147m  721.6856m 
 -426.27475m  118.7175m  699.9996m   97.1561m  721.5610m 
 -426.17475m  118.7344m  699.9996m   97.2975m  721.4365m 
 -426.07475m  118.7512m  699.9996m   97.4390m  721.3119m 
 -425.97475m  118.7681m  699.9996m   97.5804m  721.1873m 
 -425.87475m  118.7850m  699.9996m   97.7218m  721.0628m 
 -425.77475m  118.8019m  699.9996m   97.8632m  720.9383m 
 -425.67475m  118.8188m  699.9996m   98.0046m  720.8138m 
 -425.57475m  118.8357m  699.9996m   98.1461m  720.6893m 
 -425.47475m  118.8526m  699.9996m   98.2875m  720.5648m 
 -425.37475m  118.8696m  699.9996m   98.4289m  720.4403m 
 -425.27475m  118.8865m  699.9996m   98.5703m  720.3158m 
 -425.17475m  118.9035m  699.9996m   98.7117m  720.1914m 
 -425.07475m  118.9205m  699.9996m   98.8532m  720.0670m 
 -424.97475m  118.9375m  699.9996m   98.9946m  719.9426m 
 -424.87475m  118.9545m  699.9996m   99.1360m  719.8182m 
 -424.77475m  118.9716m  699.9996m   99.2774m  719.6938m 
 -424.67475m  118.9886m  699.9996m   99.4188m  719.5694m 
 -424.57475m  119.0057m  699.9996m   99.5602m  719.4450m 
 -424.47475m  119.0228m  699.9996m   99.7017m  719.3207m 
 -424.37475m  119.0398m  699.9996m   99.8431m  719.1964m 
 -424.27475m  119.0569m  699.9996m   99.9845m  719.0720m 
 -424.17475m  119.0741m  699.9996m  100.1259m  718.9477m 
 -424.07475m  119.0912m  699.9996m  100.2673m  718.8235m 
 -423.97475m  119.1083m  699.9996m  100.4088m  718.6992m 
 -423.87475m  119.1255m  699.9996m  100.5502m  718.5749m 
 -423.77475m  119.1427m  699.9996m  100.6916m  718.4507m 
 -423.67475m  119.1599m  699.9996m  100.8330m  718.3264m 
 -423.57475m  119.1771m  699.9996m  100.9744m  718.2022m 
 -423.47475m  119.1943m  699.9996m  101.1159m  718.0780m 
 -423.37475m  119.2115m  699.9996m  101.2573m  717.9538m 
 -423.27475m  119.2288m  699.9996m  101.3987m  717.8297m 
 -423.17475m  119.2460m  699.9996m  101.5401m  717.7055m 
 -423.07475m  119.2633m  699.9996m  101.6815m  717.5813m 
 -422.97475m  119.2806m  699.9996m  101.8230m  717.4572m 
 -422.87475m  119.2979m  699.9996m  101.9644m  717.3331m 
 -422.77475m  119.3152m  699.9996m  102.1058m  717.2090m 
 -422.67475m  119.3325m  699.9996m  102.2472m  717.0849m 
 -422.57475m  119.3499m  699.9996m  102.3886m  716.9608m 
 -422.47475m  119.3673m  699.9996m  102.5300m  716.8368m 
 -422.37475m  119.3846m  699.9996m  102.6715m  716.7127m 
 -422.27475m  119.4020m  699.9996m  102.8129m  716.5887m 
 -422.17475m  119.4194m  699.9996m  102.9543m  716.4647m 
 -422.07475m  119.4368m  699.9996m  103.0957m  716.3407m 
 -421.97475m  119.4543m  699.9996m  103.2371m  716.2167m 
 -421.87475m  119.4717m  699.9995m  103.3786m  716.0927m 
 -421.77475m  119.4892m  699.9995m  103.5200m  715.9687m 
 -421.67475m  119.5067m  699.9995m  103.6614m  715.8448m 
 -421.57475m  119.5241m  699.9995m  103.8028m  715.7209m 
 -421.47475m  119.5416m  699.9995m  103.9442m  715.5970m 
 -421.37475m  119.5592m  699.9995m  104.0857m  715.4731m 
 -421.27475m  119.5767m  699.9995m  104.2271m  715.3492m 
 -421.17475m  119.5943m  699.9995m  104.3685m  715.2253m 
 -421.07475m  119.6118m  699.9995m  104.5099m  715.1014m 
 -420.97475m  119.6294m  699.9995m  104.6513m  714.9776m 
 -420.87475m  119.6470m  699.9995m  104.7927m  714.8538m 
 -420.77475m  119.6646m  699.9995m  104.9342m  714.7299m 
 -420.67475m  119.6822m  699.9995m  105.0756m  714.6061m 
 -420.57475m  119.6998m  699.9995m  105.2170m  714.4824m 
 -420.47475m  119.7175m  699.9995m  105.3584m  714.3586m 
 -420.37475m  119.7352m  699.9995m  105.4998m  714.2348m 
 -420.27475m  119.7528m  699.9995m  105.6413m  714.1111m 
 -420.17475m  119.7705m  699.9995m  105.7827m  713.9874m 
 -420.07475m  119.7882m  699.9995m  105.9241m  713.8636m 
 -419.97475m  119.8060m  699.9995m  106.0655m  713.7399m 
 -419.87475m  119.8237m  699.9995m  106.2069m  713.6163m 
 -419.77475m  119.8415m  699.9995m  106.3484m  713.4926m 
 -419.67475m  119.8592m  699.9995m  106.4898m  713.3689m 
 -419.57475m  119.8770m  699.9995m  106.6312m  713.2453m 
 -419.47475m  119.8948m  699.9995m  106.7726m  713.1217m 
 -419.37475m  119.9126m  699.9995m  106.9140m  712.9981m 
 -419.27475m  119.9304m  699.9995m  107.0554m  712.8745m 
 -419.17475m  119.9483m  699.9995m  107.1969m  712.7509m 
 -419.07475m  119.9661m  699.9995m  107.3383m  712.6273m 
 -418.97475m  119.9840m  699.9995m  107.4797m  712.5038m 
 -418.87475m  120.0019m  699.9995m  107.6211m  712.3802m 
 -418.77475m  120.0198m  699.9995m  107.7625m  712.2567m 
 -418.67475m  120.0377m  699.9995m  107.9040m  712.1332m 
 -418.57475m  120.0556m  699.9995m  108.0454m  712.0097m 
 -418.47475m  120.0736m  699.9995m  108.1868m  711.8862m 
 -418.37475m  120.0915m  699.9994m  108.3282m  711.7628m 
 -418.27475m  120.1095m  699.9994m  108.4696m  711.6393m 
 -418.17475m  120.1275m  699.9994m  108.6110m  711.5159m 
 -418.07475m  120.1455m  699.9994m  108.7525m  711.3925m 
 -417.97475m  120.1635m  699.9994m  108.8939m  711.2691m 
 -417.87475m  120.1816m  699.9994m  109.0353m  711.1457m 
 -417.77475m  120.1996m  699.9994m  109.1767m  711.0223m 
 -417.67475m  120.2177m  699.9994m  109.3181m  710.8990m 
 -417.57475m  120.2358m  699.9994m  109.4596m  710.7756m 
 -417.47475m  120.2539m  699.9994m  109.6010m  710.6523m 
 -417.37475m  120.2720m  699.9994m  109.7424m  710.5290m 
 -417.27475m  120.2901m  699.9994m  109.8838m  710.4057m 
 -417.17475m  120.3082m  699.9994m  110.0252m  710.2824m 
 -417.07475m  120.3264m  699.9994m  110.1666m  710.1591m 
 -416.97475m  120.3445m  699.9994m  110.3081m  710.0359m 
 -416.87475m  120.3627m  699.9994m  110.4495m  709.9127m 
 -416.77475m  120.3809m  699.9994m  110.5909m  709.7894m 
 -416.67475m  120.3991m  699.9994m  110.7323m  709.6662m 
 -416.57475m  120.4174m  699.9994m  110.8737m  709.5430m 
 -416.47475m  120.4356m  699.9994m  111.0151m  709.4199m 
 -416.37475m  120.4539m  699.9994m  111.1566m  709.2967m 
 -416.27475m  120.4722m  699.9994m  111.2980m  709.1736m 
 -416.17475m  120.4905m  699.9994m  111.4394m  709.0504m 
 -416.07475m  120.5088m  699.9994m  111.5808m  708.9273m 
 -415.97475m  120.5271m  699.9994m  111.7222m  708.8042m 
 -415.87475m  120.5454m  699.9994m  111.8637m  708.6811m 
 -415.77475m  120.5638m  699.9994m  112.0051m  708.5581m 
 -415.67475m  120.5821m  699.9994m  112.1465m  708.4350m 
 -415.57475m  120.6005m  699.9994m  112.2879m  708.3120m 
 -415.47475m  120.6189m  699.9993m  112.4293m  708.1889m 
 -415.37475m  120.6373m  699.9993m  112.5707m  708.0659m 
 -415.27475m  120.6558m  699.9993m  112.7122m  707.9429m 
 -415.17475m  120.6742m  699.9993m  112.8536m  707.8200m 
 -415.07475m  120.6927m  699.9993m  112.9950m  707.6970m 
 -414.97475m  120.7111m  699.9993m  113.1364m  707.5740m 
 -414.87475m  120.7296m  699.9993m  113.2778m  707.4511m 
 -414.77475m  120.7481m  699.9993m  113.4192m  707.3282m 
 -414.67475m  120.7666m  699.9993m  113.5607m  707.2053m 
 -414.57475m  120.7852m  699.9993m  113.7021m  707.0824m 
 -414.47475m  120.8037m  699.9993m  113.8435m  706.9595m 
 -414.37475m  120.8223m  699.9993m  113.9849m  706.8367m 
 -414.27475m  120.8409m  699.9993m  114.1263m  706.7138m 
 -414.17475m  120.8595m  699.9993m  114.2678m  706.5910m 
 -414.07475m  120.8781m  699.9993m  114.4092m  706.4682m 
 -413.97475m  120.8967m  699.9993m  114.5506m  706.3454m 
 -413.87475m  120.9154m  699.9993m  114.6920m  706.2226m 
 -413.77475m  120.9340m  699.9993m  114.8334m  706.0999m 
 -413.67475m  120.9527m  699.9993m  114.9748m  705.9771m 
 -413.57475m  120.9714m  699.9993m  115.1163m  705.8544m 
 -413.47475m  120.9901m  699.9993m  115.2577m  705.7317m 
 -413.37475m  121.0088m  699.9993m  115.3991m  705.6090m 
 -413.27475m  121.0275m  699.9993m  115.5405m  705.4863m 
 -413.17475m  121.0463m  699.9993m  115.6819m  705.3636m 
 -413.07475m  121.0651m  699.9993m  115.8233m  705.2410m 
 -412.97475m  121.0839m  699.9992m  115.9648m  705.1183m 
 -412.87475m  121.1027m  699.9992m  116.1062m  704.9957m 
 -412.77475m  121.1215m  699.9992m  116.2476m  704.8731m 
 -412.67475m  121.1403m  699.9992m  116.3890m  704.7505m 
 -412.57475m  121.1591m  699.9992m  116.5304m  704.6279m 
 -412.47475m  121.1780m  699.9992m  116.6718m  704.5054m 
 -412.37475m  121.1969m  699.9992m  116.8133m  704.3828m 
 -412.27475m  121.2158m  699.9992m  116.9547m  704.2603m 
 -412.17475m  121.2347m  699.9992m  117.0961m  704.1378m 
 -412.07475m  121.2536m  699.9992m  117.2375m  704.0153m 
 -411.97475m  121.2726m  699.9992m  117.3789m  703.8928m 
 -411.87475m  121.2915m  699.9992m  117.5203m  703.7704m 
 -411.77475m  121.3105m  699.9992m  117.6618m  703.6479m 
 -411.67475m  121.3295m  699.9992m  117.8032m  703.5255m 
 -411.57475m  121.3485m  699.9992m  117.9446m  703.4031m 
 -411.47475m  121.3675m  699.9992m  118.0860m  703.2807m 
 -411.37475m  121.3865m  699.9992m  118.2274m  703.1583m 
 -411.27475m  121.4056m  699.9992m  118.3688m  703.0359m 
 -411.17475m  121.4246m  699.9992m  118.5103m  702.9136m 
 -411.07475m  121.4437m  699.9992m  118.6517m  702.7912m 
 -410.97475m  121.4628m  699.9992m  118.7931m  702.6689m 
 -410.87475m  121.4819m  699.9992m  118.9345m  702.5466m 
 -410.77475m  121.5011m  699.9991m  119.0759m  702.4243m 
 -410.67475m  121.5202m  699.9991m  119.2173m  702.3020m 
 -410.57475m  121.5394m  699.9991m  119.3588m  702.1798m 
 -410.47475m  121.5586m  699.9991m  119.5002m  702.0575m 
 -410.37475m  121.5778m  699.9991m  119.6416m  701.9353m 
 -410.27475m  121.5970m  699.9991m  119.7830m  701.8131m 
 -410.17475m  121.6162m  699.9991m  119.9244m  701.6909m 
 -410.07475m  121.6354m  699.9991m  120.0658m  701.5687m 
 -409.97475m  121.6547m  699.9991m  120.2073m  701.4465m 
 -409.87475m  121.6740m  699.9991m  120.3487m  701.3244m 
 -409.77475m  121.6933m  699.9991m  120.4901m  701.2023m 
 -409.67475m  121.7126m  699.9991m  120.6315m  701.0802m 
 -409.57475m  121.7319m  699.9991m  120.7729m  700.9581m 
 -409.47475m  121.7512m  699.9991m  120.9143m  700.8360m 
 -409.37475m  121.7706m  699.9991m  121.0558m  700.7139m 
 -409.27475m  121.7900m  699.9991m  121.1972m  700.5919m 
 -409.17475m  121.8094m  699.9991m  121.3386m  700.4698m 
 -409.07475m  121.8288m  699.9991m  121.4800m  700.3478m 
 -408.97475m  121.8482m  699.9991m  121.6214m  700.2258m 
 -408.87475m  121.8676m  699.9990m  121.7628m  700.1038m 
 -408.77475m  121.8871m  699.9990m  121.9043m  699.9819m 
 -408.67475m  121.9065m  699.9990m  122.0457m  699.8599m 
 -408.57475m  121.9260m  699.9990m  122.1871m  699.7380m 
 -408.47475m  121.9455m  699.9990m  122.3285m  699.6161m 
 -408.37475m  121.9650m  699.9990m  122.4699m  699.4941m 
 -408.27475m  121.9846m  699.9990m  122.6113m  699.3723m 
 -408.17475m  122.0041m  699.9990m  122.7527m  699.2504m 
 -408.07475m  122.0237m  699.9990m  122.8942m  699.1285m 
 -407.97475m  122.0433m  699.9990m  123.0356m  699.0067m 
 -407.87475m  122.0629m  699.9990m  123.1770m  698.8849m 
 -407.77475m  122.0825m  699.9990m  123.3184m  698.7631m 
 -407.67475m  122.1021m  699.9990m  123.4598m  698.6413m 
 -407.57475m  122.1218m  699.9990m  123.6012m  698.5195m 
 -407.47475m  122.1414m  699.9990m  123.7427m  698.3978m 
 -407.37475m  122.1611m  699.9990m  123.8841m  698.2760m 
 -407.27475m  122.1808m  699.9990m  124.0255m  698.1543m 
 -407.17475m  122.2005m  699.9989m  124.1669m  698.0326m 
 -407.07475m  122.2203m  699.9989m  124.3083m  697.9109m 
 -406.97475m  122.2400m  699.9989m  124.4497m  697.7892m 
 -406.87475m  122.2598m  699.9989m  124.5911m  697.6676m 
 -406.77475m  122.2796m  699.9989m  124.7326m  697.5459m 
 -406.67475m  122.2994m  699.9989m  124.8740m  697.4243m 
 -406.57475m  122.3192m  699.9989m  125.0154m  697.3027m 
 -406.47475m  122.3390m  699.9989m  125.1568m  697.1811m 
 -406.37475m  122.3588m  699.9989m  125.2982m  697.0595m 
 -406.27475m  122.3787m  699.9989m  125.4396m  696.9380m 
 -406.17475m  122.3986m  699.9989m  125.5811m  696.8164m 
 -406.07475m  122.4185m  699.9989m  125.7225m  696.6949m 
 -405.97475m  122.4384m  699.9989m  125.8639m  696.5734m 
 -405.87475m  122.4583m  699.9989m  126.0053m  696.4519m 
 -405.77475m  122.4783m  699.9989m  126.1467m  696.3304m 
 -405.67475m  122.4982m  699.9989m  126.2881m  696.2090m 
 -405.57475m  122.5182m  699.9988m  126.4295m  696.0875m 
 -405.47475m  122.5382m  699.9988m  126.5710m  695.9661m 
 -405.37475m  122.5582m  699.9988m  126.7124m  695.8447m 
 -405.27475m  122.5783m  699.9988m  126.8538m  695.7233m 
 -405.17475m  122.5983m  699.9988m  126.9952m  695.6019m 
 -405.07475m  122.6184m  699.9988m  127.1366m  695.4806m 
 -404.97475m  122.6384m  699.9988m  127.2780m  695.3592m 
 -404.87475m  122.6585m  699.9988m  127.4194m  695.2379m 
 -404.77475m  122.6787m  699.9988m  127.5609m  695.1166m 
 -404.67475m  122.6988m  699.9988m  127.7023m  694.9953m 
 -404.57475m  122.7189m  699.9988m  127.8437m  694.8740m 
 -404.47475m  122.7391m  699.9988m  127.9851m  694.7528m 
 -404.37475m  122.7593m  699.9988m  128.1265m  694.6315m 
 -404.27475m  122.7795m  699.9988m  128.2679m  694.5103m 
 -404.17475m  122.7997m  699.9988m  128.4093m  694.3891m 
 -404.07475m  122.8199m  699.9987m  128.5508m  694.2679m 
 -403.97475m  122.8402m  699.9987m  128.6922m  694.1467m 
 -403.87475m  122.8604m  699.9987m  128.8336m  694.0256m 
 -403.77475m  122.8807m  699.9987m  128.9750m  693.9044m 
 -403.67475m  122.9010m  699.9987m  129.1164m  693.7833m 
 -403.57475m  122.9213m  699.9987m  129.2578m  693.6622m 
 -403.47475m  122.9417m  699.9987m  129.3992m  693.5411m 
 -403.37475m  122.9620m  699.9987m  129.5407m  693.4201m 
 -403.27475m  122.9824m  699.9987m  129.6821m  693.2990m 
 -403.17475m  123.0028m  699.9987m  129.8235m  693.1780m 
 -403.07475m  123.0232m  699.9987m  129.9649m  693.0570m 
 -402.97475m  123.0436m  699.9987m  130.1063m  692.9360m 
 -402.87475m  123.0640m  699.9987m  130.2477m  692.8150m 
 -402.77475m  123.0845m  699.9986m  130.3891m  692.6940m 
 -402.67475m  123.1050m  699.9986m  130.5306m  692.5730m 
 -402.57475m  123.1254m  699.9986m  130.6720m  692.4521m 
 -402.47475m  123.1460m  699.9986m  130.8134m  692.3312m 
 -402.37475m  123.1665m  699.9986m  130.9548m  692.2103m 
 -402.27475m  123.1870m  699.9986m  131.0962m  692.0894m 
 -402.17475m  123.2076m  699.9986m  131.2376m  691.9686m 
 -402.07475m  123.2281m  699.9986m  131.3790m  691.8477m 
 -401.97475m  123.2487m  699.9986m  131.5204m  691.7269m 
 -401.87475m  123.2693m  699.9986m  131.6619m  691.6061m 
 -401.77475m  123.2900m  699.9986m  131.8033m  691.4853m 
 -401.67475m  123.3106m  699.9986m  131.9447m  691.3645m 
 -401.57475m  123.3313m  699.9985m  132.0861m  691.2437m 
 -401.47475m  123.3519m  699.9985m  132.2275m  691.1230m 
 -401.37475m  123.3726m  699.9985m  132.3689m  691.0023m 
 -401.27475m  123.3934m  699.9985m  132.5103m  690.8815m 
 -401.17475m  123.4141m  699.9985m  132.6517m  690.7608m 
 -401.07475m  123.4348m  699.9985m  132.7932m  690.6402m 
 -400.97475m  123.4556m  699.9985m  132.9346m  690.5195m 
 -400.87475m  123.4764m  699.9985m  133.0760m  690.3989m 
 -400.77475m  123.4972m  699.9985m  133.2174m  690.2783m 
 -400.67475m  123.5180m  699.9985m  133.3588m  690.1576m 
 -400.57475m  123.5388m  699.9985m  133.5002m  690.0371m 
 -400.47475m  123.5597m  699.9985m  133.6416m  689.9165m 
 -400.37475m  123.5805m  699.9984m  133.7830m  689.7959m 
 -400.27475m  123.6014m  699.9984m  133.9245m  689.6754m 
 -400.17475m  123.6223m  699.9984m  134.0659m  689.5549m 
 -400.07475m  123.6432m  699.9984m  134.2073m  689.4344m 
 -399.97475m  123.6642m  699.9984m  134.3487m  689.3139m 
 -399.87475m  123.6851m  699.9984m  134.4901m  689.1934m 
 -399.77475m  123.7061m  699.9984m  134.6315m  689.0730m 
 -399.67475m  123.7271m  699.9984m  134.7729m  688.9526m 
 -399.57475m  123.7481m  699.9984m  134.9143m  688.8321m 
 -399.47475m  123.7691m  699.9984m  135.0558m  688.7117m 
 -399.37475m  123.7902m  699.9984m  135.1972m  688.5914m 
 -399.27475m  123.8112m  699.9983m  135.3386m  688.4710m 
 -399.17475m  123.8323m  699.9983m  135.4800m  688.3507m 
 -399.07475m  123.8534m  699.9983m  135.6214m  688.2303m 
 -398.97475m  123.8745m  699.9983m  135.7628m  688.1100m 
 -398.87475m  123.8957m  699.9983m  135.9042m  687.9897m 
 -398.77475m  123.9168m  699.9983m  136.0456m  687.8695m 
 -398.67475m  123.9380m  699.9983m  136.1870m  687.7492m 
 -398.57475m  123.9592m  699.9983m  136.3285m  687.6290m 
 -398.47475m  123.9804m  699.9983m  136.4699m  687.5088m 
 -398.37475m  124.0016m  699.9983m  136.6113m  687.3886m 
 -398.27475m  124.0228m  699.9982m  136.7527m  687.2684m 
 -398.17475m  124.0441m  699.9982m  136.8941m  687.1482m 
 -398.07475m  124.0654m  699.9982m  137.0355m  687.0281m 
 -397.97475m  124.0867m  699.9982m  137.1769m  686.9079m 
 -397.87475m  124.1080m  699.9982m  137.3183m  686.7878m 
 -397.77475m  124.1293m  699.9982m  137.4598m  686.6677m 
 -397.67475m  124.1506m  699.9982m  137.6012m  686.5477m 
 -397.57475m  124.1720m  699.9982m  137.7426m  686.4276m 
 -397.47475m  124.1934m  699.9982m  137.8840m  686.3076m 
 -397.37475m  124.2148m  699.9981m  138.0254m  686.1875m 
 -397.27475m  124.2362m  699.9981m  138.1668m  686.0675m 
 -397.17475m  124.2576m  699.9981m  138.3082m  685.9476m 
 -397.07475m  124.2791m  699.9981m  138.4496m  685.8276m 
 -396.97475m  124.3006m  699.9981m  138.5910m  685.7076m 
 -396.87475m  124.3221m  699.9981m  138.7324m  685.5877m 
 -396.77475m  124.3436m  699.9981m  138.8739m  685.4678m 
 -396.67475m  124.3651m  699.9981m  139.0153m  685.3479m 
 -396.57475m  124.3866m  699.9981m  139.1567m  685.2280m 
 -396.47475m  124.4082m  699.9981m  139.2981m  685.1082m 
 -396.37475m  124.4298m  699.9980m  139.4395m  684.9883m 
 -396.27475m  124.4514m  699.9980m  139.5809m  684.8685m 
 -396.17475m  124.4730m  699.9980m  139.7223m  684.7487m 
 -396.07475m  124.4946m  699.9980m  139.8637m  684.6289m 
 -395.97475m  124.5163m  699.9980m  140.0051m  684.5091m 
 -395.87475m  124.5379m  699.9980m  140.1465m  684.3894m 
 -395.77475m  124.5596m  699.9980m  140.2880m  684.2696m 
 -395.67475m  124.5813m  699.9980m  140.4294m  684.1499m 
 -395.57475m  124.6031m  699.9979m  140.5708m  684.0302m 
 -395.47475m  124.6248m  699.9979m  140.7122m  683.9105m 
 -395.37475m  124.6466m  699.9979m  140.8536m  683.7909m 
 -395.27475m  124.6683m  699.9979m  140.9950m  683.6712m 
 -395.17475m  124.6901m  699.9979m  141.1364m  683.5516m 
 -395.07475m  124.7120m  699.9979m  141.2778m  683.4320m 
 -394.97475m  124.7338m  699.9979m  141.4192m  683.3124m 
 -394.87475m  124.7556m  699.9979m  141.5606m  683.1929m 
 -394.77475m  124.7775m  699.9978m  141.7020m  683.0733m 
 -394.67475m  124.7994m  699.9978m  141.8435m  682.9538m 
 -394.57475m  124.8213m  699.9978m  141.9849m  682.8343m 
 -394.47475m  124.8432m  699.9978m  142.1263m  682.7148m 
 -394.37475m  124.8652m  699.9978m  142.2677m  682.5953m 
 -394.27475m  124.8871m  699.9978m  142.4091m  682.4758m 
 -394.17475m  124.9091m  699.9978m  142.5505m  682.3564m 
 -394.07475m  124.9311m  699.9978m  142.6919m  682.2370m 
 -393.97475m  124.9531m  699.9977m  142.8333m  682.1176m 
 -393.87475m  124.9752m  699.9977m  142.9747m  681.9982m 
 -393.77475m  124.9972m  699.9977m  143.1161m  681.8788m 
 -393.67475m  125.0193m  699.9977m  143.2575m  681.7595m 
 -393.57475m  125.0414m  699.9977m  143.3989m  681.6401m 
 -393.47475m  125.0635m  699.9977m  143.5404m  681.5208m 
 -393.37475m  125.0856m  699.9977m  143.6818m  681.4015m 
 -393.27475m  125.1078m  699.9977m  143.8232m  681.2823m 
 -393.17475m  125.1299m  699.9976m  143.9646m  681.1630m 
 -393.07475m  125.1521m  699.9976m  144.1060m  681.0438m 
 -392.97475m  125.1743m  699.9976m  144.2474m  680.9246m 
 -392.87475m  125.1966m  699.9976m  144.3888m  680.8054m 
 -392.77475m  125.2188m  699.9976m  144.5302m  680.6862m 
 -392.67475m  125.2411m  699.9976m  144.6716m  680.5670m 
 -392.57475m  125.2633m  699.9976m  144.8130m  680.4479m 
 -392.47475m  125.2856m  699.9975m  144.9544m  680.3287m 
 -392.37475m  125.3079m  699.9975m  145.0958m  680.2096m 
 -392.27475m  125.3303m  699.9975m  145.2372m  680.0905m 
 -392.17475m  125.3526m  699.9975m  145.3787m  679.9715m 
 -392.07475m  125.3750m  699.9975m  145.5201m  679.8524m 
 -391.97475m  125.3974m  699.9975m  145.6615m  679.7334m 
 -391.87475m  125.4198m  699.9975m  145.8029m  679.6144m 
 -391.77475m  125.4422m  699.9974m  145.9443m  679.4954m 
 -391.67475m  125.4647m  699.9974m  146.0857m  679.3764m 
 -391.57475m  125.4871m  699.9974m  146.2271m  679.2575m 
 -391.47475m  125.5096m  699.9974m  146.3685m  679.1385m 
 -391.37475m  125.5321m  699.9974m  146.5099m  679.0196m 
 -391.27475m  125.5547m  699.9974m  146.6513m  678.9007m 
 -391.17475m  125.5772m  699.9973m  146.7927m  678.7818m 
 -391.07475m  125.5998m  699.9973m  146.9341m  678.6630m 
 -390.97475m  125.6223m  699.9973m  147.0755m  678.5441m 
 -390.87475m  125.6449m  699.9973m  147.2169m  678.4253m 
 -390.77475m  125.6675m  699.9973m  147.3583m  678.3065m 
 -390.67475m  125.6902m  699.9973m  147.4997m  678.1877m 
 -390.57475m  125.7128m  699.9973m  147.6411m  678.0689m 
 -390.47475m  125.7355m  699.9972m  147.7826m  677.9502m 
 -390.37475m  125.7582m  699.9972m  147.9240m  677.8315m 
 -390.27475m  125.7809m  699.9972m  148.0654m  677.7128m 
 -390.17475m  125.8036m  699.9972m  148.2068m  677.5941m 
 -390.07475m  125.8264m  699.9972m  148.3482m  677.4754m 
 -389.97475m  125.8492m  699.9972m  148.4896m  677.3567m 
 -389.87475m  125.8720m  699.9971m  148.6310m  677.2381m 
 -389.77475m  125.8948m  699.9971m  148.7724m  677.1195m 
 -389.67475m  125.9176m  699.9971m  148.9138m  677.0009m 
 -389.57475m  125.9404m  699.9971m  149.0552m  676.8823m 
 -389.47475m  125.9633m  699.9971m  149.1966m  676.7638m 
 -389.37475m  125.9862m  699.9971m  149.3380m  676.6452m 
 -389.27475m  126.0091m  699.9970m  149.4794m  676.5267m 
 -389.17475m  126.0320m  699.9970m  149.6208m  676.4082m 
 -389.07475m  126.0549m  699.9970m  149.7622m  676.2897m 
 -388.97475m  126.0779m  699.9970m  149.9036m  676.1713m 
 -388.87475m  126.1009m  699.9970m  150.0450m  676.0528m 
 -388.77475m  126.1239m  699.9969m  150.1864m  675.9344m 
 -388.67475m  126.1469m  699.9969m  150.3278m  675.8160m 
 -388.57475m  126.1699m  699.9969m  150.4692m  675.6976m 
 -388.47475m  126.1930m  699.9969m  150.6106m  675.5793m 
 -388.37475m  126.2161m  699.9969m  150.7520m  675.4609m 
 -388.27475m  126.2392m  699.9969m  150.8934m  675.3426m 
 -388.17475m  126.2623m  699.9968m  151.0348m  675.2243m 
 -388.07475m  126.2854m  699.9968m  151.1763m  675.1060m 
 -387.97475m  126.3086m  699.9968m  151.3177m  674.9877m 
 -387.87475m  126.3317m  699.9968m  151.4591m  674.8695m 
 -387.77475m  126.3549m  699.9968m  151.6005m  674.7512m 
 -387.67475m  126.3782m  699.9967m  151.7419m  674.6330m 
 -387.57475m  126.4014m  699.9967m  151.8833m  674.5148m 
 -387.47475m  126.4246m  699.9967m  152.0247m  674.3967m 
 -387.37475m  126.4479m  699.9967m  152.1661m  674.2785m 
 -387.27475m  126.4712m  699.9967m  152.3075m  674.1604m 
 -387.17475m  126.4945m  699.9967m  152.4489m  674.0423m 
 -387.07475m  126.5178m  699.9966m  152.5903m  673.9242m 
 -386.97475m  126.5412m  699.9966m  152.7317m  673.8061m 
 -386.87475m  126.5645m  699.9966m  152.8731m  673.6881m 
 -386.77475m  126.5879m  699.9966m  153.0145m  673.5700m 
 -386.67475m  126.6113m  699.9966m  153.1559m  673.4520m 
 -386.57475m  126.6348m  699.9965m  153.2973m  673.3340m 
 -386.47475m  126.6582m  699.9965m  153.4387m  673.2160m 
 -386.37475m  126.6817m  699.9965m  153.5801m  673.0981m 
 -386.27475m  126.7052m  699.9965m  153.7215m  672.9802m 
 -386.17475m  126.7287m  699.9964m  153.8629m  672.8622m 
 -386.07475m  126.7522m  699.9964m  154.0043m  672.7443m 
 -385.97475m  126.7757m  699.9964m  154.1457m  672.6265m 
 -385.87475m  126.7993m  699.9964m  154.2871m  672.5086m 
 -385.77475m  126.8229m  699.9964m  154.4285m  672.3908m 
 -385.67475m  126.8465m  699.9963m  154.5699m  672.2730m 
 -385.57475m  126.8701m  699.9963m  154.7113m  672.1552m 
 -385.47475m  126.8938m  699.9963m  154.8527m  672.0374m 
 -385.37475m  126.9174m  699.9963m  154.9941m  671.9196m 
 -385.27475m  126.9411m  699.9963m  155.1355m  671.8019m 
 -385.17475m  126.9648m  699.9962m  155.2769m  671.6842m 
 -385.07475m  126.9885m  699.9962m  155.4183m  671.5665m 
 -384.97475m  127.0123m  699.9962m  155.5597m  671.4488m 
 -384.87475m  127.0360m  699.9962m  155.7011m  671.3311m 
 -384.77475m  127.0598m  699.9961m  155.8425m  671.2135m 
 -384.67475m  127.0836m  699.9961m  155.9839m  671.0959m 
 -384.57475m  127.1075m  699.9961m  156.1253m  670.9783m 
 -384.47475m  127.1313m  699.9961m  156.2667m  670.8607m 
 -384.37475m  127.1552m  699.9961m  156.4081m  670.7431m 
 -384.27475m  127.1790m  699.9960m  156.5495m  670.6256m 
 -384.17475m  127.2029m  699.9960m  156.6909m  670.5081m 
 -384.07475m  127.2269m  699.9960m  156.8323m  670.3906m 
 -383.97475m  127.2508m  699.9960m  156.9737m  670.2731m 
 -383.87475m  127.2748m  699.9959m  157.1151m  670.1556m 
 -383.77475m  127.2988m  699.9959m  157.2565m  670.0382m 
 -383.67475m  127.3228m  699.9959m  157.3979m  669.9208m 
 -383.57475m  127.3468m  699.9959m  157.5393m  669.8034m 
 -383.47475m  127.3708m  699.9958m  157.6807m  669.6860m 
 -383.37475m  127.3949m  699.9958m  157.8221m  669.5687m 
 -383.27475m  127.4190m  699.9958m  157.9634m  669.4513m 
 -383.17475m  127.4431m  699.9958m  158.1048m  669.3340m 
 -383.07475m  127.4672m  699.9957m  158.2462m  669.2167m 
 -382.97475m  127.4913m  699.9957m  158.3876m  669.0994m 
 -382.87475m  127.5155m  699.9957m  158.5290m  668.9822m 
 -382.77475m  127.5397m  699.9957m  158.6704m  668.8649m 
 -382.67475m  127.5639m  699.9956m  158.8118m  668.7477m 
 -382.57475m  127.5881m  699.9956m  158.9532m  668.6305m 
 -382.47475m  127.6124m  699.9956m  159.0946m  668.5133m 
 -382.37475m  127.6366m  699.9956m  159.2360m  668.3962m 
 -382.27475m  127.6609m  699.9955m  159.3774m  668.2790m 
 -382.17475m  127.6852m  699.9955m  159.5188m  668.1619m 
 -382.07475m  127.7095m  699.9955m  159.6602m  668.0448m 
 -381.97475m  127.7339m  699.9955m  159.8016m  667.9278m 
 -381.87475m  127.7583m  699.9954m  159.9430m  667.8107m 
 -381.77475m  127.7826m  699.9954m  160.0844m  667.6937m 
 -381.67475m  127.8071m  699.9954m  160.2258m  667.5767m 
 -381.57475m  127.8315m  699.9954m  160.3672m  667.4597m 
 -381.47475m  127.8559m  699.9953m  160.5086m  667.3427m 
 -381.37475m  127.8804m  699.9953m  160.6500m  667.2257m 
 -381.27475m  127.9049m  699.9953m  160.7914m  667.1088m 
 -381.17475m  127.9294m  699.9952m  160.9327m  666.9919m 
 -381.07475m  127.9539m  699.9952m  161.0741m  666.8750m 
 -380.97475m  127.9785m  699.9952m  161.2155m  666.7581m 
 -380.87475m  128.0031m  699.9952m  161.3569m  666.6413m 
 -380.77475m  128.0276m  699.9951m  161.4983m  666.5245m 
 -380.67475m  128.0523m  699.9951m  161.6397m  666.4076m 
 -380.57475m  128.0769m  699.9951m  161.7811m  666.2909m 
 -380.47475m  128.1015m  699.9950m  161.9225m  666.1741m 
 -380.37475m  128.1262m  699.9950m  162.0639m  666.0573m 
 -380.27475m  128.1509m  699.9950m  162.2053m  665.9406m 
 -380.17475m  128.1756m  699.9950m  162.3467m  665.8239m 
 -380.07475m  128.2004m  699.9949m  162.4881m  665.7072m 
 -379.97475m  128.2251m  699.9949m  162.6295m  665.5906m 
 -379.87475m  128.2499m  699.9949m  162.7708m  665.4739m 
 -379.77475m  128.2747m  699.9948m  162.9122m  665.3573m 
 -379.67475m  128.2995m  699.9948m  163.0536m  665.2407m 
 -379.57475m  128.3244m  699.9948m  163.1950m  665.1241m 
 -379.47475m  128.3492m  699.9947m  163.3364m  665.0076m 
 -379.37475m  128.3741m  699.9947m  163.4778m  664.8910m 
 -379.27475m  128.3990m  699.9947m  163.6192m  664.7745m 
 -379.17475m  128.4239m  699.9946m  163.7606m  664.6580m 
 -379.07475m  128.4489m  699.9946m  163.9020m  664.5415m 
 -378.97475m  128.4738m  699.9946m  164.0434m  664.4251m 
 -378.87475m  128.4988m  699.9946m  164.1847m  664.3086m 
 -378.77475m  128.5238m  699.9945m  164.3261m  664.1922m 
 -378.67475m  128.5489m  699.9945m  164.4675m  664.0758m 
 -378.57475m  128.5739m  699.9945m  164.6089m  663.9594m 
 -378.47475m  128.5990m  699.9944m  164.7503m  663.8431m 
 -378.37475m  128.6241m  699.9944m  164.8917m  663.7268m 
 -378.27475m  128.6492m  699.9944m  165.0331m  663.6104m 
 -378.17475m  128.6743m  699.9943m  165.1745m  663.4942m 
 -378.07475m  128.6995m  699.9943m  165.3159m  663.3779m 
 -377.97475m  128.7246m  699.9943m  165.4572m  663.2616m 
 -377.87475m  128.7498m  699.9942m  165.5986m  663.1454m 
 -377.77475m  128.7750m  699.9942m  165.7400m  663.0292m 
 -377.67475m  128.8003m  699.9942m  165.8814m  662.9130m 
 -377.57475m  128.8255m  699.9941m  166.0228m  662.7969m 
 -377.47475m  128.8508m  699.9941m  166.1642m  662.6807m 
 -377.37475m  128.8761m  699.9941m  166.3056m  662.5646m 
 -377.27475m  128.9014m  699.9940m  166.4470m  662.4485m 
 -377.17475m  128.9268m  699.9940m  166.5883m  662.3324m 
 -377.07475m  128.9521m  699.9939m  166.7297m  662.2164m 
 -376.97475m  128.9775m  699.9939m  166.8711m  662.1003m 
 -376.87475m  129.0029m  699.9939m  167.0125m  661.9843m 
 -376.77475m  129.0284m  699.9938m  167.1539m  661.8683m 
 -376.67475m  129.0538m  699.9938m  167.2953m  661.7523m 
 -376.57475m  129.0793m  699.9938m  167.4367m  661.6364m 
 -376.47475m  129.1048m  699.9937m  167.5780m  661.5205m 
 -376.37475m  129.1303m  699.9937m  167.7194m  661.4046m 
 -376.27475m  129.1558m  699.9937m  167.8608m  661.2887m 
 -376.17475m  129.1814m  699.9936m  168.0022m  661.1728m 
 -376.07475m  129.2069m  699.9936m  168.1436m  661.0570m 
 -375.97475m  129.2325m  699.9935m  168.2850m  660.9411m 
 -375.87475m  129.2582m  699.9935m  168.4263m  660.8253m 
 -375.77475m  129.2838m  699.9935m  168.5677m  660.7095m 
 -375.67475m  129.3095m  699.9934m  168.7091m  660.5938m 
 -375.57475m  129.3351m  699.9934m  168.8505m  660.4780m 
 -375.47475m  129.3608m  699.9933m  168.9919m  660.3623m 
 -375.37475m  129.3866m  699.9933m  169.1333m  660.2466m 
 -375.27475m  129.4123m  699.9933m  169.2746m  660.1310m 
 -375.17475m  129.4381m  699.9932m  169.4160m  660.0153m 
 -375.07475m  129.4639m  699.9932m  169.5574m  659.8997m 
 -374.97475m  129.4897m  699.9931m  169.6988m  659.7841m 
 -374.87475m  129.5155m  699.9931m  169.8402m  659.6685m 
 -374.77475m  129.5414m  699.9931m  169.9815m  659.5529m 
 -374.67475m  129.5673m  699.9930m  170.1229m  659.4374m 
 -374.57475m  129.5932m  699.9930m  170.2643m  659.3218m 
 -374.47475m  129.6191m  699.9929m  170.4057m  659.2063m 
 -374.37475m  129.6450m  699.9929m  170.5471m  659.0909m 
 -374.27475m  129.6710m  699.9929m  170.6884m  658.9754m 
 -374.17475m  129.6970m  699.9928m  170.8298m  658.8600m 
 -374.07475m  129.7230m  699.9928m  170.9712m  658.7445m 
 -373.97475m  129.7490m  699.9927m  171.1126m  658.6291m 
 -373.87475m  129.7750m  699.9927m  171.2540m  658.5138m 
 -373.77475m  129.8011m  699.9926m  171.3953m  658.3984m 
 -373.67475m  129.8272m  699.9926m  171.5367m  658.2831m 
 -373.57475m  129.8533m  699.9926m  171.6781m  658.1678m 
 -373.47475m  129.8795m  699.9925m  171.8195m  658.0525m 
 -373.37475m  129.9056m  699.9925m  171.9608m  657.9372m 
 -373.27475m  129.9318m  699.9924m  172.1022m  657.8220m 
 -373.17475m  129.9580m  699.9924m  172.2436m  657.7068m 
 -373.07475m  129.9842m  699.9923m  172.3850m  657.5916m 
 -372.97475m  130.0105m  699.9923m  172.5263m  657.4764m 
 -372.87475m  130.0367m  699.9922m  172.6677m  657.3612m 
 -372.77475m  130.0630m  699.9922m  172.8091m  657.2461m 
 -372.67475m  130.0893m  699.9922m  172.9505m  657.1310m 
 -372.57475m  130.1157m  699.9921m  173.0918m  657.0159m 
 -372.47475m  130.1420m  699.9921m  173.2332m  656.9008m 
 -372.37475m  130.1684m  699.9920m  173.3746m  656.7858m 
 -372.27475m  130.1948m  699.9920m  173.5160m  656.6708m 
 -372.17475m  130.2212m  699.9919m  173.6573m  656.5558m 
 -372.07475m  130.2476m  699.9919m  173.7987m  656.4408m 
 -371.97475m  130.2741m  699.9918m  173.9401m  656.3258m 
 -371.87475m  130.3006m  699.9918m  174.0815m  656.2109m 
 -371.77475m  130.3271m  699.9917m  174.2228m  656.0960m 
 -371.67475m  130.3536m  699.9917m  174.3642m  655.9811m 
 -371.57475m  130.3802m  699.9916m  174.5056m  655.8662m 
 -371.47475m  130.4068m  699.9916m  174.6470m  655.7514m 
 -371.37475m  130.4333m  699.9915m  174.7883m  655.6365m 
 -371.27475m  130.4600m  699.9915m  174.9297m  655.5217m 
 -371.17475m  130.4866m  699.9914m  175.0711m  655.4070m 
 -371.07475m  130.5133m  699.9914m  175.2124m  655.2922m 
 -370.97475m  130.5399m  699.9913m  175.3538m  655.1775m 
 -370.87475m  130.5667m  699.9913m  175.4952m  655.0628m 
 -370.77475m  130.5934m  699.9912m  175.6365m  654.9481m 
 -370.67475m  130.6201m  699.9912m  175.7779m  654.8334m 
 -370.57475m  130.6469m  699.9911m  175.9193m  654.7187m 
 -370.47475m  130.6737m  699.9911m  176.0607m  654.6041m 
 -370.37475m  130.7005m  699.9910m  176.2020m  654.4895m 
 -370.27475m  130.7274m  699.9910m  176.3434m  654.3749m 
 -370.17475m  130.7542m  699.9909m  176.4848m  654.2604m 
 -370.07475m  130.7811m  699.9909m  176.6261m  654.1458m 
 -369.97475m  130.8080m  699.9908m  176.7675m  654.0313m 
 -369.87475m  130.8349m  699.9907m  176.9089m  653.9168m 
 -369.77475m  130.8619m  699.9907m  177.0502m  653.8024m 
 -369.67475m  130.8889m  699.9906m  177.1916m  653.6879m 
 -369.57475m  130.9159m  699.9906m  177.3330m  653.5735m 
 -369.47475m  130.9429m  699.9905m  177.4743m  653.4591m 
 -369.37475m  130.9699m  699.9905m  177.6157m  653.3447m 
 -369.27475m  130.9970m  699.9904m  177.7571m  653.2303m 
 -369.17475m  131.0241m  699.9904m  177.8984m  653.1160m 
 -369.07475m  131.0512m  699.9903m  178.0398m  653.0017m 
 -368.97475m  131.0783m  699.9902m  178.1811m  652.8874m 
 -368.87475m  131.1055m  699.9902m  178.3225m  652.7731m 
 -368.77475m  131.1326m  699.9901m  178.4639m  652.6589m 
 -368.67475m  131.1598m  699.9901m  178.6052m  652.5447m 
 -368.57475m  131.1870m  699.9900m  178.7466m  652.4305m 
 -368.47475m  131.2143m  699.9899m  178.8880m  652.3163m 
 -368.37475m  131.2416m  699.9899m  179.0293m  652.2021m 
 -368.27475m  131.2688m  699.9898m  179.1707m  652.0880m 
 -368.17475m  131.2961m  699.9898m  179.3120m  651.9739m 
 -368.07475m  131.3235m  699.9897m  179.4534m  651.8598m 
 -367.97475m  131.3508m  699.9896m  179.5948m  651.7457m 
 -367.87475m  131.3782m  699.9896m  179.7361m  651.6317m 
 -367.77475m  131.4056m  699.9895m  179.8775m  651.5177m 
 -367.67475m  131.4330m  699.9895m  180.0188m  651.4037m 
 -367.57475m  131.4605m  699.9894m  180.1602m  651.2897m 
 -367.47475m  131.4880m  699.9893m  180.3016m  651.1757m 
 -367.37475m  131.5154m  699.9893m  180.4429m  651.0618m 
 -367.27475m  131.5430m  699.9892m  180.5843m  650.9479m 
 -367.17475m  131.5705m  699.9891m  180.7256m  650.8340m 
 -367.07475m  131.5981m  699.9891m  180.8670m  650.7201m 
 -366.97475m  131.6256m  699.9890m  181.0083m  650.6063m 
 -366.87475m  131.6532m  699.9889m  181.1497m  650.4925m 
 -366.77475m  131.6809m  699.9889m  181.2911m  650.3787m 
 -366.67475m  131.7085m  699.9888m  181.4324m  650.2649m 
 -366.57475m  131.7362m  699.9887m  181.5738m  650.1512m 
 -366.47475m  131.7639m  699.9887m  181.7151m  650.0374m 
 -366.37475m  131.7916m  699.9886m  181.8565m  649.9237m 
 -366.27475m  131.8194m  699.9885m  181.9978m  649.8101m 
 -366.17475m  131.8471m  699.9885m  182.1392m  649.6964m 
 -366.07475m  131.8749m  699.9884m  182.2805m  649.5828m 
 -365.97475m  131.9027m  699.9883m  182.4219m  649.4692m 
 -365.87475m  131.9305m  699.9883m  182.5632m  649.3556m 
 -365.77475m  131.9584m  699.9882m  182.7046m  649.2420m 
 -365.67475m  131.9863m  699.9881m  182.8459m  649.1285m 
 -365.57475m  132.0142m  699.9881m  182.9873m  649.0150m 
 -365.47475m  132.0421m  699.9880m  183.1286m  648.9015m 
 -365.37475m  132.0701m  699.9879m  183.2700m  648.7880m 
 -365.27475m  132.0980m  699.9878m  183.4113m  648.6745m 
 -365.17475m  132.1260m  699.9878m  183.5527m  648.5611m 
 -365.07475m  132.1540m  699.9877m  183.6940m  648.4477m 
 -364.97475m  132.1821m  699.9876m  183.8354m  648.3343m 
 -364.87475m  132.2102m  699.9875m  183.9767m  648.2210m 
 -364.77475m  132.2382m  699.9875m  184.1181m  648.1076m 
 -364.67475m  132.2663m  699.9874m  184.2594m  647.9943m 
 -364.57475m  132.2945m  699.9873m  184.4008m  647.8810m 
 -364.47475m  132.3226m  699.9872m  184.5421m  647.7678m 
 -364.37475m  132.3508m  699.9872m  184.6835m  647.6545m 
 -364.27475m  132.3790m  699.9871m  184.8248m  647.5413m 
 -364.17475m  132.4072m  699.9870m  184.9662m  647.4281m 
 -364.07475m  132.4355m  699.9869m  185.1075m  647.3149m 
 -363.97475m  132.4638m  699.9869m  185.2488m  647.2018m 
 -363.87475m  132.4921m  699.9868m  185.3902m  647.0887m 
 -363.77475m  132.5204m  699.9867m  185.5315m  646.9756m 
 -363.67475m  132.5487m  699.9866m  185.6729m  646.8625m 
 -363.57475m  132.5771m  699.9865m  185.8142m  646.7494m 
 -363.47475m  132.6055m  699.9865m  185.9556m  646.6364m 
 -363.37475m  132.6339m  699.9864m  186.0969m  646.5234m 
 -363.27475m  132.6623m  699.9863m  186.2382m  646.4104m 
 -363.17475m  132.6908m  699.9862m  186.3796m  646.2974m 
 -363.07475m  132.7193m  699.9861m  186.5209m  646.1845m 
 -362.97475m  132.7478m  699.9861m  186.6622m  646.0716m 
 -362.87475m  132.7763m  699.9860m  186.8036m  645.9587m 
 -362.77475m  132.8049m  699.9859m  186.9449m  645.8458m 
 -362.67475m  132.8334m  699.9858m  187.0863m  645.7330m 
 -362.57475m  132.8620m  699.9857m  187.2276m  645.6202m 
 -362.47475m  132.8907m  699.9856m  187.3689m  645.5074m 
 -362.37475m  132.9193m  699.9856m  187.5103m  645.3946m 
 -362.27475m  132.9480m  699.9855m  187.6516m  645.2818m 
 -362.17475m  132.9767m  699.9854m  187.7929m  645.1691m 
 -362.07475m  133.0054m  699.9853m  187.9343m  645.0564m 
 -361.97475m  133.0341m  699.9852m  188.0756m  644.9437m 
 -361.87475m  133.0629m  699.9851m  188.2169m  644.8311m 
 -361.77475m  133.0917m  699.9850m  188.3583m  644.7184m 
 -361.67475m  133.1205m  699.9849m  188.4996m  644.6058m 
 -361.57475m  133.1493m  699.9848m  188.6409m  644.4932m 
 -361.47475m  133.1782m  699.9848m  188.7823m  644.3807m 
 -361.37475m  133.2071m  699.9847m  188.9236m  644.2681m 
 -361.27475m  133.2360m  699.9846m  189.0649m  644.1556m 
 -361.17475m  133.2649m  699.9845m  189.2063m  644.0431m 
 -361.07475m  133.2939m  699.9844m  189.3476m  643.9307m 
 -360.97475m  133.3228m  699.9843m  189.4889m  643.8182m 
 -360.87475m  133.3518m  699.9842m  189.6302m  643.7058m 
 -360.77475m  133.3809m  699.9841m  189.7716m  643.5934m 
 -360.67475m  133.4099m  699.9840m  189.9129m  643.4810m 
 -360.57475m  133.4390m  699.9839m  190.0542m  643.3687m 
 -360.47475m  133.4681m  699.9838m  190.1955m  643.2564m 
 -360.37475m  133.4972m  699.9837m  190.3369m  643.1440m 
 -360.27475m  133.5263m  699.9836m  190.4782m  643.0318m 
 -360.17475m  133.5555m  699.9835m  190.6195m  642.9195m 
 -360.07475m  133.5847m  699.9834m  190.7608m  642.8073m 
[...]
  469.52525m  700.0000m  112.5768m  776.5858m   35.9910m 
  469.62525m  700.0000m  112.5649m  776.7153m   35.8496m 
  469.72525m  700.0000m  112.5531m  776.8449m   35.7081m 
  469.82525m  700.0000m  112.5412m  776.9744m   35.5667m 
  469.92525m  700.0000m  112.5293m  777.1040m   35.4253m 
  470.02525m  700.0000m  112.5175m  777.2336m   35.2839m 
  470.12525m  700.0000m  112.5056m  777.3631m   35.1425m 
  470.22525m  700.0000m  112.4938m  777.4927m   35.0010m 
  470.32525m  700.0000m  112.4820m  777.6223m   34.8596m 
  470.42525m  700.0000m  112.4702m  777.7519m   34.7182m 
  470.52525m  700.0000m  112.4584m  777.8816m   34.5768m 
  470.62525m  700.0000m  112.4466m  778.0112m   34.4354m 
  470.72525m  700.0000m  112.4348m  778.1408m   34.2939m 
  470.82525m  700.0000m  112.4230m  778.2705m   34.1525m 
  470.92525m  700.0000m  112.4112m  778.4001m   34.0111m 
  471.02525m  700.0000m  112.3995m  778.5298m   33.8697m 
  471.12525m  700.0000m  112.3877m  778.6594m   33.7282m 
  471.22525m  700.0000m  112.3760m  778.7891m   33.5868m 
  471.32525m  700.0000m  112.3642m  778.9188m   33.4454m 
  471.42525m  700.0000m  112.3525m  779.0485m   33.3040m 
  471.52525m  700.0000m  112.3408m  779.1782m   33.1626m 
  471.62525m  700.0000m  112.3291m  779.3079m   33.0211m 
  471.72525m  700.0000m  112.3174m  779.4376m   32.8797m 
  471.82525m  700.0000m  112.3057m  779.5674m   32.7383m 
  471.92525m  700.0000m  112.2940m  779.6971m   32.5969m 
  472.02525m  700.0000m  112.2824m  779.8269m   32.4555m 
  472.12525m  700.0000m  112.2707m  779.9566m   32.3140m 
  472.22525m  700.0000m  112.2590m  780.0864m   32.1726m 
  472.32525m  700.0000m  112.2474m  780.2162m   32.0312m 
  472.42525m  700.0000m  112.2358m  780.3460m   31.8898m 
  472.52525m  700.0000m  112.2241m  780.4758m   31.7484m 
  472.62525m  700.0000m  112.2125m  780.6056m   31.6069m 
  472.72525m  700.0000m  112.2009m  780.7354m   31.4655m 
  472.82525m  700.0000m  112.1893m  780.8652m   31.3241m 
  472.92525m  700.0000m  112.1777m  780.9950m   31.1827m 
  473.02525m  700.0000m  112.1662m  781.1249m   31.0412m 
  473.12525m  700.0000m  112.1546m  781.2547m   30.8998m 
  473.22525m  700.0000m  112.1430m  781.3846m   30.7584m 
  473.32525m  700.0000m  112.1315m  781.5145m   30.6170m 
  473.42525m  700.0000m  112.1199m  781.6444m   30.4756m 
  473.52525m  700.0000m  112.1084m  781.7742m   30.3341m 
  473.62525m  700.0000m  112.0969m  781.9041m   30.1927m 
  473.72525m  700.0000m  112.0854m  782.0340m   30.0513m 
  473.82525m  700.0000m  112.0739m  782.1640m   29.9099m 
  473.92525m  700.0000m  112.0624m  782.2939m   29.7685m 
  474.02525m  700.0000m  112.0509m  782.4238m   29.6270m 
  474.12525m  700.0000m  112.0394m  782.5537m   29.4856m 
  474.22525m  700.0000m  112.0279m  782.6837m   29.3442m 
  474.32525m  700.0000m  112.0164m  782.8137m   29.2028m 
  474.42525m  700.0000m  112.0050m  782.9436m   29.0613m 
  474.52525m  700.0000m  111.9936m  783.0736m   28.9199m 
  474.62525m  700.0000m  111.9821m  783.2036m   28.7785m 
  474.72525m  700.0000m  111.9707m  783.3336m   28.6371m 
  474.82525m  700.0000m  111.9593m  783.4636m   28.4957m 
  474.92525m  700.0000m  111.9479m  783.5936m   28.3542m 
  475.02525m  700.0000m  111.9365m  783.7236m   28.2128m 
  475.12525m  700.0000m  111.9251m  783.8536m   28.0714m 
  475.22525m  700.0000m  111.9137m  783.9837m   27.9300m 
  475.32525m  700.0000m  111.9023m  784.1137m   27.7886m 
  475.42525m  700.0000m  111.8909m  784.2438m   27.6471m 
  475.52525m  700.0000m  111.8796m  784.3738m   27.5057m 
  475.62525m  700.0000m  111.8682m  784.5039m   27.3643m 
  475.72525m  700.0000m  111.8569m  784.6340m   27.2229m 
  475.82525m  700.0000m  111.8456m  784.7641m   27.0815m 
  475.92525m  700.0000m  111.8342m  784.8942m   26.9400m 
  476.02525m  700.0000m  111.8229m  785.0243m   26.7986m 
  476.12525m  700.0000m  111.8116m  785.1544m   26.6572m 
  476.22525m  700.0000m  111.8003m  785.2845m   26.5158m 
  476.32525m  700.0000m  111.7890m  785.4147m   26.3743m 
  476.42525m  700.0000m  111.7778m  785.5448m   26.2329m 
  476.52525m  700.0000m  111.7665m  785.6750m   26.0915m 
  476.62525m  700.0000m  111.7552m  785.8051m   25.9501m 
  476.72525m  700.0000m  111.7440m  785.9353m   25.8087m 
  476.82525m  700.0000m  111.7327m  786.0655m   25.6672m 
  476.92525m  700.0000m  111.7215m  786.1957m   25.5258m 
  477.02525m  700.0000m  111.7103m  786.3259m   25.3844m 
  477.12525m  700.0000m  111.6991m  786.4561m   25.2430m 
  477.22525m  700.0000m  111.6879m  786.5863m   25.1016m 
  477.32525m  700.0000m  111.6766m  786.7165m   24.9601m 
  477.42525m  700.0000m  111.6655m  786.8467m   24.8187m 
  477.52525m  700.0000m  111.6543m  786.9770m   24.6773m 
  477.62525m  700.0000m  111.6431m  787.1072m   24.5359m 
  477.72525m  700.0000m  111.6319m  787.2375m   24.3944m 
  477.82525m  700.0000m  111.6208m  787.3677m   24.2530m 
  477.92525m  700.0000m  111.6096m  787.4980m   24.1116m 
  478.02525m  700.0000m  111.5985m  787.6283m   23.9702m 
  478.12525m  700.0000m  111.5874m  787.7586m   23.8288m 
  478.22525m  700.0000m  111.5762m  787.8889m   23.6873m 
  478.32525m  700.0000m  111.5651m  788.0192m   23.5459m 
  478.42525m  700.0000m  111.5540m  788.1495m   23.4045m 
  478.52525m  700.0000m  111.5429m  788.2798m   23.2631m 
  478.62525m  700.0000m  111.5318m  788.4102m   23.1217m 
  478.72525m  700.0000m  111.5207m  788.5405m   22.9802m 
  478.82525m  700.0000m  111.5097m  788.6708m   22.8388m 
  478.92525m  700.0000m  111.4986m  788.8012m   22.6974m 
  479.02525m  700.0000m  111.4876m  788.9316m   22.5560m 
  479.12525m  700.0000m  111.4765m  789.0619m   22.4145m 
  479.22525m  700.0000m  111.4655m  789.1923m   22.2731m 
  479.32525m  700.0000m  111.4544m  789.3227m   22.1317m 
  479.42525m  700.0000m  111.4434m  789.4531m   21.9903m 
  479.52525m  700.0000m  111.4324m  789.5835m   21.8489m 
  479.62525m  700.0000m  111.4214m  789.7139m   21.7074m 
  479.72525m  700.0000m  111.4104m  789.8444m   21.5660m 
  479.82525m  700.0000m  111.3994m  789.9748m   21.4246m 
  479.92525m  700.0000m  111.3884m  790.1053m   21.2832m 
  480.02525m  700.0000m  111.3775m  790.2357m   21.1418m 
  480.12525m  700.0000m  111.3665m  790.3662m   21.0003m 
  480.22525m  700.0000m  111.3556m  790.4966m   20.8589m 
  480.32525m  700.0000m  111.3446m  790.6271m   20.7175m 
  480.42525m  700.0000m  111.3337m  790.7576m   20.5761m 
  480.52525m  700.0000m  111.3228m  790.8881m   20.4347m 
  480.62525m  700.0000m  111.3118m  791.0186m   20.2932m 
  480.72525m  700.0000m  111.3009m  791.1491m   20.1518m 
  480.82525m  700.0000m  111.2900m  791.2796m   20.0104m 
  480.92525m  700.0000m  111.2791m  791.4101m   19.8690m 
  481.02525m  700.0000m  111.2682m  791.5407m   19.7275m 
  481.12525m  700.0000m  111.2574m  791.6712m   19.5861m 
  481.22525m  700.0000m  111.2465m  791.8018m   19.4447m 
  481.32525m  700.0000m  111.2356m  791.9323m   19.3033m 
  481.42525m  700.0000m  111.2248m  792.0629m   19.1619m 
  481.52525m  700.0000m  111.2139m  792.1935m   19.0204m 
  481.62525m  700.0000m  111.2031m  792.3241m   18.8790m 
  481.72525m  700.0000m  111.1923m  792.4547m   18.7376m 
  481.82525m  700.0000m  111.1814m  792.5853m   18.5962m 
  481.92525m  700.0000m  111.1706m  792.7159m   18.4548m 
  482.02525m  700.0000m  111.1598m  792.8465m   18.3133m 
  482.12525m  700.0000m  111.1490m  792.9771m   18.1719m 
  482.22525m  700.0000m  111.1383m  793.1077m   18.0305m 
  482.32525m  700.0000m  111.1275m  793.2384m   17.8891m 
  482.42525m  700.0000m  111.1167m  793.3690m   17.7476m 
  482.52525m  700.0000m  111.1059m  793.4997m   17.6062m 
  482.62525m  700.0000m  111.0952m  793.6304m   17.4648m 
  482.72525m  700.0000m  111.0844m  793.7610m   17.3234m 
  482.82525m  700.0000m  111.0737m  793.8917m   17.1820m 
  482.92525m  700.0000m  111.0630m  794.0224m   17.0405m 
  483.02525m  700.0000m  111.0523m  794.1531m   16.8991m 
  483.12525m  700.0000m  111.0415m  794.2838m   16.7577m 
  483.22525m  700.0000m  111.0308m  794.4145m   16.6163m 
  483.32525m  700.0000m  111.0201m  794.5453m   16.4749m 
  483.42525m  700.0000m  111.0095m  794.6760m   16.3334m 
  483.52525m  700.0000m  110.9988m  794.8067m   16.1920m 
  483.62525m  700.0000m  110.9881m  794.9375m   16.0506m 
  483.72525m  700.0000m  110.9774m  795.0683m   15.9092m 
  483.82525m  700.0000m  110.9668m  795.1990m   15.7678m 
  483.92525m  700.0000m  110.9561m  795.3298m   15.6263m 
  484.02525m  700.0000m  110.9455m  795.4606m   15.4849m 
  484.12525m  700.0000m  110.9349m  795.5914m   15.3435m 
  484.22525m  700.0000m  110.9242m  795.7222m   15.2021m 
  484.32525m  700.0000m  110.9136m  795.8530m   15.0606m 
  484.42525m  700.0000m  110.9030m  795.9838m   14.9192m 
  484.52525m  700.0000m  110.8924m  796.1146m   14.7778m 
  484.62525m  700.0000m  110.8818m  796.2454m   14.6364m 
  484.72525m  700.0000m  110.8713m  796.3763m   14.4950m 
  484.82525m  700.0000m  110.8607m  796.5071m   14.3535m 
  484.92525m  700.0000m  110.8501m  796.6380m   14.2121m 
  485.02525m  700.0000m  110.8396m  796.7688m   14.0707m 
  485.12525m  700.0000m  110.8290m  796.8997m   13.9293m 
  485.22525m  700.0000m  110.8185m  797.0306m   13.7879m 
  485.32525m  700.0000m  110.8079m  797.1615m   13.6464m 
  485.42525m  700.0000m  110.7974m  797.2924m   13.5050m 
  485.52525m  700.0000m  110.7869m  797.4233m   13.3636m 
  485.62525m  700.0000m  110.7764m  797.5542m   13.2222m 
  485.72525m  700.0000m  110.7659m  797.6851m   13.0807m 
  485.82525m  700.0000m  110.7554m  797.8160m   12.9393m 
  485.92525m  700.0000m  110.7449m  797.9470m   12.7979m 
  486.02525m  700.0000m  110.7344m  798.0779m   12.6565m 
  486.12525m  700.0000m  110.7239m  798.2089m   12.5151m 
  486.22525m  700.0000m  110.7135m  798.3398m   12.3736m 
  486.32525m  700.0000m  110.7030m  798.4708m   12.2322m 
  486.42525m  700.0000m  110.6926m  798.6018m   12.0908m 
  486.52525m  700.0000m  110.6821m  798.7328m   11.9494m 
  486.62525m  700.0000m  110.6717m  798.8637m   11.8080m 
  486.72525m  700.0000m  110.6613m  798.9947m   11.6665m 
  486.82525m  700.0000m  110.6509m  799.1257m   11.5251m 
  486.92525m  700.0000m  110.6405m  799.2568m   11.3837m 
  487.02525m  700.0000m  110.6301m  799.3878m   11.2423m 
  487.12525m  700.0000m  110.6197m  799.5188m   11.1008m 
  487.22525m  700.0000m  110.6093m  799.6499m   10.9594m 
  487.32525m  700.0000m  110.5989m  799.7809m   10.8180m 
  487.42525m  700.0000m  110.5885m  799.9120m   10.6766m 
  487.52525m  700.0000m  110.5782m  800.0430m   10.5352m 
  487.62525m  700.0000m  110.5678m  800.1741m   10.3937m 
  487.72525m  700.0000m  110.5575m  800.3052m   10.2523m 
  487.82525m  700.0000m  110.5472m  800.4362m   10.1109m 
  487.92525m  700.0000m  110.5368m  800.5673m    9.9695m 
  488.02525m  700.0000m  110.5265m  800.6984m    9.8281m 
  488.12525m  700.0000m  110.5162m  800.8296m    9.6866m 
  488.22525m  700.0000m  110.5059m  800.9607m    9.5452m 
  488.32525m  700.0000m  110.4956m  801.0918m    9.4038m 
  488.42525m  700.0000m  110.4853m  801.2229m    9.2624m 
  488.52525m  700.0000m  110.4750m  801.3541m    9.1209m 
  488.62525m  700.0000m  110.4648m  801.4852m    8.9795m 
  488.72525m  700.0000m  110.4545m  801.6164m    8.8381m 
  488.82525m  700.0000m  110.4442m  801.7475m    8.6967m 
  488.92525m  700.0000m  110.4340m  801.8787m    8.5553m 
  489.02525m  700.0000m  110.4237m  802.0099m    8.4138m 
  489.12525m  700.0000m  110.4135m  802.1411m    8.2724m 
  489.22525m  700.0000m  110.4033m  802.2723m    8.1310m 
  489.32525m  700.0000m  110.3931m  802.4035m    7.9896m 
  489.42525m  700.0000m  110.3828m  802.5347m    7.8482m 
  489.52525m  700.0000m  110.3726m  802.6659m    7.7067m 
  489.62525m  700.0000m  110.3624m  802.7971m    7.5653m 
  489.72525m  700.0000m  110.3523m  802.9284m    7.4239m 
  489.82525m  700.0000m  110.3421m  803.0596m    7.2825m 
  489.92525m  700.0000m  110.3319m  803.1908m    7.1411m 
  490.02525m  700.0000m  110.3217m  803.3221m    6.9996m 
  490.12525m  700.0000m  110.3116m  803.4534m    6.8582m 
  490.22525m  700.0000m  110.3014m  803.5846m    6.7168m 
  490.32525m  700.0000m  110.2913m  803.7159m    6.5754m 
  490.42525m  700.0000m  110.2812m  803.8472m    6.4339m 
  490.52525m  700.0000m  110.2710m  803.9785m    6.2925m 
  490.62525m  700.0000m  110.2609m  804.1098m    6.1511m 
  490.72525m  700.0000m  110.2508m  804.2411m    6.0097m 
  490.82525m  700.0000m  110.2407m  804.3724m    5.8683m 
  490.92525m  700.0000m  110.2306m  804.5037m    5.7268m 
  491.02525m  700.0000m  110.2205m  804.6351m    5.5854m 
  491.12525m  700.0000m  110.2104m  804.7664m    5.4440m 
  491.22525m  700.0000m  110.2004m  804.8978m    5.3026m 
  491.32525m  700.0000m  110.1903m  805.0291m    5.1612m 
  491.42525m  700.0000m  110.1802m  805.1605m    5.0197m 
  491.52525m  700.0000m  110.1702m  805.2919m    4.8783m 
  491.62525m  700.0000m  110.1601m  805.4232m    4.7369m 
  491.72525m  700.0000m  110.1501m  805.5546m    4.5955m 
  491.82525m  700.0000m  110.1401m  805.6860m    4.4540m 
  491.92525m  700.0000m  110.1301m  805.8174m    4.3126m 
  492.02525m  700.0000m  110.1200m  805.9488m    4.1712m 
  492.12525m  700.0000m  110.1100m  806.0802m    4.0298m 
  492.22525m  700.0000m  110.1000m  806.2117m    3.8884m 
  492.32525m  700.0000m  110.0900m  806.3431m    3.7469m 
  492.42525m  700.0000m  110.0801m  806.4745m    3.6055m 
  492.52525m  700.0000m  110.0701m  806.6060m    3.4641m 
  492.62525m  700.0000m  110.0601m  806.7374m    3.3227m 
  492.72525m  700.0000m  110.0502m  806.8689m    3.1813m 
  492.82525m  700.0000m  110.0402m  807.0004m    3.0398m 
  492.92525m  700.0000m  110.0303m  807.1318m    2.8984m 
  493.02525m  700.0000m  110.0203m  807.2633m    2.7570m 
  493.12525m  700.0000m  110.0104m  807.3948m    2.6156m 
  493.22525m  700.0000m  110.0005m  807.5263m    2.4741m 
  493.32525m  700.0000m  109.9906m  807.6578m    2.3327m 
  493.42525m  700.0000m  109.9807m  807.7893m    2.1913m 
  493.52525m  700.0000m  109.9708m  807.9209m    2.0499m 
  493.62525m  700.0000m  109.9609m  808.0524m    1.9085m 
  493.72525m  700.0000m  109.9510m  808.1839m    1.7670m 
  493.82525m  700.0000m  109.9411m  808.3155m    1.6256m 
  493.92525m  700.0000m  109.9312m  808.4470m    1.4842m 
  494.02525m  700.0000m  109.9214m  808.5786m    1.3428m 
  494.12525m  700.0000m  109.9115m  808.7101m    1.2014m 
  494.22525m  700.0000m  109.9017m  808.8417m    1.0599m 
  494.32525m  700.0000m  109.8918m  808.9733m  918.5137u 
  494.42525m  700.0000m  109.8820m  809.1049m  777.0924u 
  494.52525m  700.0000m  109.8722m  809.2365m  635.6711u 
  494.62525m  700.0000m  109.8623m  809.3681m  494.2498u 
  494.72525m  700.0000m  109.8525m  809.4997m  352.8285u 
  494.82525m  700.0000m  109.8427m  809.6313m  211.4071u 
  494.92525m  700.0000m  109.8329m  809.7629m   69.9858u 
y
 max_1= 218.7731m    at=-235.6747m
             from=-494.9747m    to= 494.9253m
 max_2= 218.7731m    at= 235.6253m
             from=-494.9747m    to= 494.9253m
 snm= 154.6959m
1****** HSPICE -- Q-2020.03-SP2-2 linux64 (Nov  1 2020) ******                  
 ******  
 .title noise margin in read operation

 ****** operating point information tnom=  25.000 temp=  25.000 ******
 ****** operating point status is all       simulation time is     0.     
    node    =voltage      node    =voltage      node    =voltage

 +0:bl      = 700.0000m 0:blb     = 700.0000m 0:gl      = 371.6076m
 +0:gr      = 371.6076m 0:q       = 371.6076m 0:qb      = 371.6076m
 +0:u       =   0.      0:v1      = 525.5326m 0:v2      = 525.5326m
 +0:vdd     = 700.0000m 0:wl      = 700.0000m 0:x       = 603.7133m


 **** voltage sources

 subckt                                   
 element  0:vu       0:vvdd     0:vwl     
  volts      0.       700.0000m  700.0000m
  current    0.        -1.1975u  -45.9039f
  power      0.       838.2525n   32.1327f

     total voltage source power dissipation=  838.2525n       watts



 **** voltage-controlled voltage sources


 subckt                                              
 element  0:eli      0:ev1      0:eri      0:ev2     
  volts    371.6076m  525.5326m  371.6076m  525.5326m
  current    9.5290f    0.         9.5290f    0.     





 **** mosfets


 subckt                                                                    
 element  0:mpr      0:mnr      0:mpl      0:mnl      0:mnpr     0:mnpl    
 model    0:pmos_sra 0:nmos_sra 0:pmos_sra 0:nmos_sra 0:nmos_sra 0:nmos_sra
 region   Subth      Subth      Subth      Subth      Subth      Subth     
  id      -598.7517n  783.8598n -598.7517n  783.8598n  185.1080n  185.1080n
  ibs        0.         0.         0.         0.         0.         0.     
  ibd        0.         0.         0.         0.         0.         0.     
  vgs     -328.3924m  371.6076m -328.3924m  371.6076m  328.3924m  328.3924m
  vds     -328.3924m  371.6076m -328.3924m  371.6076m  328.3924m  328.3924m
  vbs      -96.2867m  603.7133m  -96.2867m  603.7133m  232.1057m  232.1057m
  vth     -342.5850m  410.7756m -342.5850m  410.7756m  411.0556m  411.0556m
  vdsat    -91.5530m   80.3263m  -91.5530m   80.3263m   73.5352m   73.5352m
  vod       14.1927m  -39.1680m   14.1927m  -39.1680m  -82.6632m  -82.6632m
  beta       2.5635m    3.3880m    2.5635m    3.3880m    3.3880m    3.3880m
  gam eff    0.         0.         0.         0.         0.         0.     
  gm        15.8906u   23.2176u   15.8906u   23.2176u    6.5516u    6.5516u
  gds      417.0112n  386.5803n  417.0112n  386.5803n  109.8198n  109.8198n
  gmb        6.2723p   17.0952p    6.2723p   17.0952p    2.3985p    2.3985p
  cdtot     10.8063a   10.8707a   10.8063a   10.8707a   10.8727a   10.8727a
  cgtot     34.0107a   29.3476a   34.0107a   29.3476a   24.2702a   24.2702a
  cstot     18.9053a   15.9987a   18.9053a   15.9987a   12.5947a   12.5947a
  cbtot      0.         0.         0.         0.         0.         0.     
  cgs       23.3546a   18.5070a   23.3546a   18.5070a   13.4092a   13.4092a
  cgd       10.6561a   10.8406a   10.6561a   10.8406a   10.8610a   10.8610a




          ***** job concluded
 ******  
 .title noise margin in read operation

 ****** job statistics summary tnom=  25.000 temp=  25.000 ******
  
 ******  Machine Information  ******
 CPU:
 model name	: AMD EPYC 7713 64-Core Processor
 cpu MHz	: 1500.000
  
 OS:
 Linux version 3.10.0-1160.88.1.el7.x86_64 (mockbuild@kbuilder.bsys.centos.org) (gcc version 4.8.5 20150623 (Red Hat 4.8.5-44) (GCC) ) #1 SMP Tue Mar 7 15:41:52 UTC 2023


  ******  HSPICE Threads Information  ******

  Command Line Threads Count :     1
  Available CPU Count        :   256
  Actual Threads Count       :     1


  ******  Circuit Statistics  ******
  # nodes       =      13 # elements   =      15
  # resistors   =       0 # capacitors =       2 # inductors   =       0
  # mutual_inds =       0 # vccs       =       0 # vcvs        =       4
  # cccs        =       0 # ccvs       =       0 # volt_srcs   =       3
  # curr_srcs   =       0 # diodes     =       0 # bjts        =       0
  # jfets       =       0 # mosfets    =       6 # U elements  =       0
  # T elements  =       0 # W elements =       0 # B elements  =       0
  # S elements  =       0 # P elements =       0 # va device   =       0
  # vector_srcs =       0 # N elements =       0


  ******  Runtime Statistics (seconds)  ******

  analysis           time    # points   tot. iter  conv.iter
  op point           0.01           1          10
  dc sweep           0.86        9900       29712
  readin             0.01
  errchk             0.00
  setup              0.00
  output             0.00


           peak memory used        406.02 megabytes
           total cpu time            0.96 seconds
           total elapsed time        1.11 seconds
           job started at     13:54:09 03/23/2025
           job ended   at     13:54:10 03/23/2025
           job total runtime         1.11 seconds


 lic: Release hspice token(s) 
 lic: total license checkout elapse time:        0.15(s)
