 ****** HSPICE -- Q-2020.03-SP2-2 linux64 (Nov  1 2020) ******                  
  Copyright (c) 1986 - 2025 by Synopsys, Inc. All Rights Reserved.              
  This software and the associated documentation are proprietary
  to Synopsys, Inc. This software may only be used in accordance
  with the terms and conditions of a written license agreement with
  Synopsys, Inc. All other use, reproduction, or distribution of
  this software is strictly prohibited.
  Input File: SRAM_SNM_FF.sp                                                    
  Command line options: /RAID2/cad/synopsys/hspice/2020.03-sp2-2/hspice/linux64/hspice -i SRAM_SNM_FF.sp -o SRAM_SNM_FF.lis
  Start time: Sun Mar 23 13:19:30 2025
 lic:  
 lic: FLEXlm: SDK_12.6 
 lic: USER:   es25MCS042           HOSTNAME: ee28 
 lic: HOSTID: "d85ed3efc19a"       PID:      110477 
 lic: Using FLEXlm license file: 
 lic: 26585@lshc 
 lic: Checkout 1 hspice 
 lic: License/Maintenance for hspice will expire on 14-may-2025/2024.09 
 lic: 179(in_use)/1100(total) FLOATING license(s) on SERVER 26585@lshc 
 lic:   
  
      
             
 Warning:'Floating bulk' occurs 1 times
 Summary of floating bulk:
 -----------------------
 |Node      |Device    |
 |----------+----------|
 |x         |mpr       |
 -----------------------
              
 *****************************************************************
 ******  option summary
 ******
 runlvl  = 3         bypass  = 2.0000    
 ******
 .title noise margin in hold operation

 ****** dc transfer curves tnom=  25.000 temp=  25.000 ******
x

 volt         voltage    voltage    voltage    voltage   
             q          qb         gl         gr         
 -494.97475m   34.5862n  700.0000m   -9.6924n  700.0000m 
 -494.87475m   34.7412n  700.0000m  141.4116u  699.8586m 
 -494.77475m   34.8972n  700.0000m  282.8329u  699.7172m 
 -494.67475m   35.0541n  700.0000m  424.2543u  699.5758m 
 -494.57475m   35.2118n  700.0000m  565.6756u  699.4343m 
 -494.47475m   35.3705n  700.0000m  707.0969u  699.2929m 
 -494.37475m   35.5300n  700.0000m  848.5182u  699.1515m 
 -494.27475m   35.6905n  700.0000m  989.9395u  699.0101m 
 -494.17475m   35.8519n  700.0000m    1.1314m  698.8687m 
 -494.07475m   36.0142n  700.0000m    1.2728m  698.7272m 
 -493.97475m   36.1774n  700.0000m    1.4142m  698.5858m 
 -493.87475m   36.3416n  700.0000m    1.5556m  698.4444m 
 -493.77475m   36.5067n  700.0000m    1.6970m  698.3030m 
 -493.67475m   36.6728n  700.0000m    1.8385m  698.1616m 
 -493.57475m   36.8398n  700.0000m    1.9799m  698.0201m 
 -493.47475m   37.0078n  700.0000m    2.1213m  697.8787m 
 -493.37475m   37.1767n  700.0000m    2.2627m  697.7373m 
 -493.27475m   37.3466n  700.0000m    2.4042m  697.5959m 
 -493.17475m   37.5175n  700.0000m    2.5456m  697.4545m 
 -493.07475m   37.6893n  700.0000m    2.6870m  697.3130m 
 -492.97475m   37.8622n  700.0000m    2.8284m  697.1716m 
 -492.87475m   38.0360n  700.0000m    2.9698m  697.0302m 
 -492.77475m   38.2108n  700.0000m    3.1113m  696.8888m 
 -492.67475m   38.3866n  700.0000m    3.2527m  696.7473m 
 -492.57475m   38.5635n  700.0000m    3.3941m  696.6059m 
 -492.47475m   38.7413n  700.0000m    3.5355m  696.4645m 
 -492.37475m   38.9201n  700.0000m    3.6769m  696.3231m 
 -492.27475m   39.1000n  700.0000m    3.8184m  696.1817m 
 -492.17475m   39.2809n  700.0000m    3.9598m  696.0402m 
 -492.07475m   39.4629n  700.0000m    4.1012m  695.8988m 
 -491.97475m   39.6459n  700.0000m    4.2426m  695.7574m 
 -491.87475m   39.8299n  700.0000m    4.3841m  695.6160m 
 -491.77475m   40.0150n  700.0000m    4.5255m  695.4746m 
 -491.67475m   40.2011n  700.0000m    4.6669m  695.3331m 
 -491.57475m   40.3883n  700.0000m    4.8083m  695.1917m 
 -491.47475m   40.5766n  700.0000m    4.9497m  695.0503m 
 -491.37475m   40.7660n  700.0000m    5.0912m  694.9089m 
 -491.27475m   40.9564n  700.0000m    5.2326m  694.7675m 
 -491.17475m   41.1480n  700.0000m    5.3740m  694.6260m 
 -491.07475m   41.3406n  700.0000m    5.5154m  694.4846m 
 -490.97475m   41.5343n  700.0000m    5.6568m  694.3432m 
 -490.87475m   41.7292n  700.0000m    5.7983m  694.2018m 
 -490.77475m   41.9251n  700.0000m    5.9397m  694.0603m 
 -490.67475m   42.1222n  700.0000m    6.0811m  693.9189m 
 -490.57475m   42.3204n  700.0000m    6.2225m  693.7775m 
 -490.47475m   42.5198n  700.0000m    6.3639m  693.6361m 
 -490.37475m   42.7203n  700.0000m    6.5054m  693.4947m 
 -490.27475m   42.9219n  700.0000m    6.6468m  693.3532m 
 -490.17475m   43.1247n  700.0000m    6.7882m  693.2118m 
 -490.07475m   43.3287n  700.0000m    6.9296m  693.0704m 
 -489.97475m   43.5338n  700.0000m    7.0711m  692.9290m 
 -489.87475m   43.7401n  700.0000m    7.2125m  692.7876m 
 -489.77475m   43.9476n  700.0000m    7.3539m  692.6461m 
 -489.67475m   44.1562n  700.0000m    7.4953m  692.5047m 
 -489.57475m   44.3661n  700.0000m    7.6367m  692.3633m 
 -489.47475m   44.5771n  700.0000m    7.7782m  692.2219m 
 -489.37475m   44.7894n  700.0000m    7.9196m  692.0804m 
 -489.27475m   45.0029n  700.0000m    8.0610m  691.9390m 
 -489.17475m   45.2176n  700.0000m    8.2024m  691.7976m 
 -489.07475m   45.4336n  700.0000m    8.3438m  691.6562m 
 -488.97475m   45.6507n  700.0000m    8.4853m  691.5148m 
 -488.87475m   45.8692n  700.0000m    8.6267m  691.3733m 
 -488.77475m   46.0888n  700.0000m    8.7681m  691.2319m 
 -488.67475m   46.3098n  700.0000m    8.9095m  691.0905m 
 -488.57475m   46.5320n  700.0000m    9.0510m  690.9491m 
 -488.47475m   46.7554n  700.0000m    9.1924m  690.8077m 
 -488.37475m   46.9802n  700.0000m    9.3338m  690.6662m 
 -488.27475m   47.2062n  700.0000m    9.4752m  690.5248m 
 -488.17475m   47.4336n  700.0000m    9.6166m  690.3834m 
 -488.07475m   47.6622n  700.0000m    9.7581m  690.2420m 
 -487.97475m   47.8921n  700.0000m    9.8995m  690.1006m 
 -487.87475m   48.1234n  700.0000m   10.0409m  689.9591m 
 -487.77475m   48.3560n  700.0000m   10.1823m  689.8177m 
 -487.67475m   48.5899n  700.0000m   10.3237m  689.6763m 
 -487.57475m   48.8252n  700.0000m   10.4652m  689.5349m 
 -487.47475m   49.0618n  700.0000m   10.6066m  689.3934m 
 -487.37475m   49.2997n  700.0000m   10.7480m  689.2520m 
 -487.27475m   49.5391n  700.0000m   10.8894m  689.1106m 
 -487.17475m   49.7798n  700.0000m   11.0309m  688.9692m 
 -487.07475m   50.0219n  700.0000m   11.1723m  688.8278m 
 -486.97475m   50.2653n  700.0000m   11.3137m  688.6863m 
 -486.87475m   50.5102n  700.0000m   11.4551m  688.5449m 
 -486.77475m   50.7565n  700.0000m   11.5965m  688.4035m 
 -486.67475m   51.0041n  700.0000m   11.7380m  688.2621m 
 -486.57475m   51.2532n  700.0000m   11.8794m  688.1207m 
 -486.47475m   51.5038n  700.0000m   12.0208m  687.9792m 
 -486.37475m   51.7557n  700.0000m   12.1622m  687.8378m 
 -486.27475m   52.0091n  700.0000m   12.3036m  687.6964m 
 -486.17475m   52.2640n  700.0000m   12.4451m  687.5550m 
 -486.07475m   52.5203n  700.0000m   12.5865m  687.4136m 
 -485.97475m   52.7781n  700.0000m   12.7279m  687.2721m 
 -485.87475m   53.0374n  700.0000m   12.8693m  687.1307m 
 -485.77475m   53.2981n  700.0000m   13.0108m  686.9893m 
 -485.67475m   53.5604n  700.0000m   13.1522m  686.8479m 
 -485.57475m   53.8241n  700.0000m   13.2936m  686.7064m 
 -485.47475m   54.0894n  700.0000m   13.4350m  686.5650m 
 -485.37475m   54.3562n  700.0000m   13.5764m  686.4236m 
 -485.27475m   54.6245n  700.0000m   13.7179m  686.2822m 
 -485.17475m   54.8943n  700.0000m   13.8593m  686.1408m 
 -485.07475m   55.1657n  700.0000m   14.0007m  685.9993m 
 -484.97475m   55.4387n  700.0000m   14.1421m  685.8579m 
 -484.87475m   55.7132n  700.0000m   14.2835m  685.7165m 
 -484.77475m   55.9893n  700.0000m   14.4250m  685.5751m 
 -484.67475m   56.2670n  700.0000m   14.5664m  685.4337m 
 -484.57475m   56.5463n  700.0000m   14.7078m  685.2922m 
 -484.47475m   56.8271n  700.0000m   14.8492m  685.1508m 
 -484.37475m   57.1096n  700.0000m   14.9906m  685.0094m 
 -484.27475m   57.3937n  700.0000m   15.1321m  684.8680m 
 -484.17475m   57.6795n  700.0000m   15.2735m  684.7266m 
 -484.07475m   57.9668n  700.0000m   15.4149m  684.5851m 
 -483.97475m   58.2559n  700.0000m   15.5563m  684.4437m 
 -483.87475m   58.5465n  700.0000m   15.6978m  684.3023m 
 -483.77475m   58.8389n  700.0000m   15.8392m  684.1609m 
 -483.67475m   59.1329n  700.0000m   15.9806m  684.0194m 
 -483.57475m   59.4286n  700.0000m   16.1220m  683.8780m 
 -483.47475m   59.7260n  700.0000m   16.2634m  683.7366m 
 -483.37475m   60.0252n  700.0000m   16.4049m  683.5952m 
 -483.27475m   60.3260n  700.0000m   16.5463m  683.4538m 
 -483.17475m   60.6285n  700.0000m   16.6877m  683.3123m 
 -483.07475m   60.9328n  700.0000m   16.8291m  683.1709m 
 -482.97475m   61.2389n  700.0000m   16.9705m  683.0295m 
 -482.87475m   61.5467n  700.0000m   17.1120m  682.8881m 
 -482.77475m   61.8562n  700.0000m   17.2534m  682.7467m 
 -482.67475m   62.1676n  700.0000m   17.3948m  682.6052m 
 -482.57475m   62.4807n  700.0000m   17.5362m  682.4638m 
 -482.47475m   62.7956n  700.0000m   17.6777m  682.3224m 
 -482.37475m   63.1123n  700.0000m   17.8191m  682.1810m 
 -482.27475m   63.4309n  700.0000m   17.9605m  682.0396m 
 -482.17475m   63.7512n  700.0000m   18.1019m  681.8981m 
 -482.07475m   64.0735n  700.0000m   18.2433m  681.7567m 
 -481.97475m   64.3975n  700.0000m   18.3848m  681.6153m 
 -481.87475m   64.7234n  700.0000m   18.5262m  681.4739m 
 -481.77475m   65.0512n  700.0000m   18.6676m  681.3324m 
 -481.67475m   65.3809n  700.0000m   18.8090m  681.1910m 
 -481.57475m   65.7125n  700.0000m   18.9504m  681.0496m 
 -481.47475m   66.0459n  700.0000m   19.0919m  680.9082m 
 -481.37475m   66.3813n  700.0000m   19.2333m  680.7668m 
 -481.27475m   66.7186n  700.0000m   19.3747m  680.6253m 
 -481.17475m   67.0579n  700.0000m   19.5161m  680.4839m 
 -481.07475m   67.3991n  700.0000m   19.6576m  680.3425m 
 -480.97475m   67.7422n  700.0000m   19.7990m  680.2011m 
 -480.87475m   68.0874n  700.0000m   19.9404m  680.0597m 
 -480.77475m   68.4345n  700.0000m   20.0818m  679.9182m 
 -480.67475m   68.7836n  700.0000m   20.2232m  679.7768m 
 -480.57475m   69.1347n  700.0000m   20.3647m  679.6354m 
 -480.47475m   69.4878n  700.0000m   20.5061m  679.4940m 
 -480.37475m   69.8429n  700.0000m   20.6475m  679.3526m 
 -480.27475m   70.2001n  700.0000m   20.7889m  679.2111m 
 -480.17475m   70.5593n  700.0000m   20.9303m  679.0697m 
 -480.07475m   70.9206n  700.0000m   21.0718m  678.9283m 
 -479.97475m   71.2840n  700.0000m   21.2132m  678.7869m 
 -479.87475m   71.6495n  700.0000m   21.3546m  678.6454m 
 -479.77475m   72.0170n  700.0000m   21.4960m  678.5040m 
 -479.67475m   72.3867n  700.0000m   21.6374m  678.3626m 
 -479.57475m   72.7585n  700.0000m   21.7789m  678.2212m 
 -479.47475m   73.1324n  700.0000m   21.9203m  678.0798m 
 -479.37475m   73.5085n  700.0000m   22.0617m  677.9383m 
 -479.27475m   73.8868n  700.0000m   22.2031m  677.7969m 
 -479.17475m   74.2672n  700.0000m   22.3446m  677.6555m 
 -479.07475m   74.6498n  700.0000m   22.4860m  677.5141m 
 -478.97475m   75.0346n  700.0000m   22.6274m  677.3727m 
 -478.87475m   75.4216n  700.0000m   22.7688m  677.2312m 
 -478.77475m   75.8108n  700.0000m   22.9102m  677.0898m 
 -478.67475m   76.2023n  700.0000m   23.0517m  676.9484m 
 -478.57475m   76.5960n  700.0000m   23.1931m  676.8070m 
 -478.47475m   76.9920n  700.0000m   23.3345m  676.6656m 
 -478.37475m   77.3902n  700.0000m   23.4759m  676.5241m 
 -478.27475m   77.7908n  700.0000m   23.6173m  676.3827m 
 -478.17475m   78.1936n  700.0000m   23.7588m  676.2413m 
 -478.07475m   78.5988n  700.0000m   23.9002m  676.0999m 
 -477.97475m   79.0062n  700.0000m   24.0416m  675.9584m 
 -477.87475m   79.4161n  700.0000m   24.1830m  675.8170m 
 -477.77475m   79.8283n  700.0000m   24.3245m  675.6756m 
 -477.67475m   80.2428n  700.0000m   24.4659m  675.5342m 
 -477.57475m   80.6598n  700.0000m   24.6073m  675.3928m 
 -477.47475m   81.0791n  700.0000m   24.7487m  675.2513m 
 -477.37475m   81.5008n  700.0000m   24.8901m  675.1099m 
 -477.27475m   81.9250n  700.0000m   25.0316m  674.9685m 
 -477.17475m   82.3516n  700.0000m   25.1730m  674.8271m 
 -477.07475m   82.7807n  700.0000m   25.3144m  674.6857m 
 -476.97475m   83.2122n  700.0000m   25.4558m  674.5442m 
 -476.87475m   83.6462n  700.0000m   25.5972m  674.4028m 
 -476.77475m   84.0827n  700.0000m   25.7387m  674.2614m 
 -476.67475m   84.5217n  700.0000m   25.8801m  674.1200m 
 -476.57475m   84.9633n  700.0000m   26.0215m  673.9786m 
 -476.47475m   85.4074n  700.0000m   26.1629m  673.8371m 
 -476.37475m   85.8540n  700.0000m   26.3043m  673.6957m 
 -476.27475m   86.3032n  700.0000m   26.4458m  673.5543m 
 -476.17475m   86.7550n  700.0000m   26.5872m  673.4129m 
 -476.07475m   87.2094n  700.0000m   26.7286m  673.2715m 
 -475.97475m   87.6664n  700.0000m   26.8700m  673.1300m 
 -475.87475m   88.1260n  700.0000m   27.0115m  672.9886m 
 -475.77475m   88.5883n  700.0000m   27.1529m  672.8472m 
 -475.67475m   89.0532n  700.0000m   27.2943m  672.7058m 
 -475.57475m   89.5208n  700.0000m   27.4357m  672.5643m 
 -475.47475m   89.9911n  700.0000m   27.5771m  672.4229m 
 -475.37475m   90.4641n  700.0000m   27.7186m  672.2815m 
 -475.27475m   90.9398n  700.0000m   27.8600m  672.1401m 
 -475.17475m   91.4182n  700.0000m   28.0014m  671.9987m 
 -475.07475m   91.8995n  700.0000m   28.1428m  671.8572m 
 -474.97475m   92.3834n  700.0000m   28.2842m  671.7158m 
 -474.87475m   92.8702n  700.0000m   28.4257m  671.5744m 
 -474.77475m   93.3598n  700.0000m   28.5671m  671.4330m 
 -474.67475m   93.8521n  700.0000m   28.7085m  671.2916m 
 -474.57475m   94.3474n  700.0000m   28.8499m  671.1501m 
 -474.47475m   94.8454n  700.0000m   28.9914m  671.0087m 
 -474.37475m   95.3464n  700.0000m   29.1328m  670.8673m 
 -474.27475m   95.8502n  700.0000m   29.2742m  670.7259m 
 -474.17475m   96.3569n  700.0000m   29.4156m  670.5845m 
 -474.07475m   96.8665n  700.0000m   29.5570m  670.4430m 
 -473.97475m   97.3791n  700.0000m   29.6985m  670.3016m 
 -473.87475m   97.8946n  700.0000m   29.8399m  670.1602m 
 -473.77475m   98.4131n  700.0000m   29.9813m  670.0188m 
 -473.67475m   98.9345n  700.0000m   30.1227m  669.8774m 
 -473.57475m   99.4590n  700.0000m   30.2641m  669.7359m 
 -473.47475m   99.9865n  700.0000m   30.4056m  669.5945m 
 -473.37475m  100.5170n  700.0000m   30.5470m  669.4531m 
 -473.27475m  101.0506n  700.0000m   30.6884m  669.3117m 
 -473.17475m  101.5872n  700.0000m   30.8298m  669.1702m 
 -473.07475m  102.1270n  700.0000m   30.9712m  669.0288m 
 -472.97475m  102.6698n  700.0000m   31.1127m  668.8874m 
 -472.87475m  103.2158n  700.0000m   31.2541m  668.7460m 
 -472.77475m  103.7649n  700.0000m   31.3955m  668.6046m 
 -472.67475m  104.3172n  700.0000m   31.5369m  668.4631m 
 -472.57475m  104.8727n  700.0000m   31.6784m  668.3217m 
 -472.47475m  105.4313n  700.0000m   31.8198m  668.1803m 
 -472.37475m  105.9932n  700.0000m   31.9612m  668.0389m 
 -472.27475m  106.5583n  700.0000m   32.1026m  667.8975m 
 -472.17475m  107.1267n  700.0000m   32.2440m  667.7560m 
 -472.07475m  107.6984n  700.0000m   32.3855m  667.6146m 
 -471.97475m  108.2733n  700.0000m   32.5269m  667.4732m 
 -471.87475m  108.8515n  700.0000m   32.6683m  667.3318m 
 -471.77475m  109.4331n  700.0000m   32.8097m  667.1904m 
 -471.67475m  110.0181n  700.0000m   32.9511m  667.0489m 
 -471.57475m  110.6064n  700.0000m   33.0926m  666.9075m 
 -471.47475m  111.1981n  700.0000m   33.2340m  666.7661m 
 -471.37475m  111.7932n  700.0000m   33.3754m  666.6247m 
 -471.27475m  112.3917n  700.0000m   33.5168m  666.4833m 
 -471.17475m  112.9937n  700.0000m   33.6583m  666.3418m 
 -471.07475m  113.5991n  700.0000m   33.7997m  666.2004m 
 -470.97475m  114.2081n  700.0000m   33.9411m  666.0590m 
 -470.87475m  114.8205n  700.0000m   34.0825m  665.9176m 
 -470.77475m  115.4365n  700.0000m   34.2239m  665.7761m 
 -470.67475m  116.0560n  700.0000m   34.3654m  665.6347m 
 -470.57475m  116.6791n  700.0000m   34.5068m  665.4933m 
 -470.47475m  117.3058n  700.0000m   34.6482m  665.3519m 
 -470.37475m  117.9361n  700.0000m   34.7896m  665.2105m 
 -470.27475m  118.5701n  700.0000m   34.9310m  665.0690m 
 -470.17475m  119.2077n  700.0000m   35.0725m  664.9276m 
 -470.07475m  119.8489n  700.0000m   35.2139m  664.7862m 
 -469.97475m  120.4939n  700.0000m   35.3553m  664.6448m 
 -469.87475m  121.1426n  700.0000m   35.4967m  664.5034m 
 -469.77475m  121.7950n  700.0000m   35.6381m  664.3619m 
 -469.67475m  122.4512n  700.0000m   35.7796m  664.2205m 
 -469.57475m  123.1112n  700.0000m   35.9210m  664.0791m 
 -469.47475m  123.7749n  700.0000m   36.0624m  663.9377m 
 -469.37475m  124.4425n  700.0000m   36.2038m  663.7963m 
 -469.27475m  125.1140n  700.0000m   36.3453m  663.6548m 
 -469.17475m  125.7893n  700.0000m   36.4867m  663.5134m 
 -469.07475m  126.4685n  700.0000m   36.6281m  663.3720m 
 -468.97475m  127.1517n  700.0000m   36.7695m  663.2306m 
 -468.87475m  127.8388n  700.0000m   36.9109m  663.0892m 
 -468.77475m  128.5298n  700.0000m   37.0524m  662.9477m 
 -468.67475m  129.2248n  700.0000m   37.1938m  662.8063m 
 -468.57475m  129.9239n  700.0000m   37.3352m  662.6649m 
 -468.47475m  130.6270n  700.0000m   37.4766m  662.5235m 
 -468.37475m  131.3341n  700.0000m   37.6180m  662.3821m 
 -468.27475m  132.0453n  700.0000m   37.7595m  662.2406m 
 -468.17475m  132.7606n  700.0000m   37.9009m  662.0992m 
 -468.07475m  133.4801n  700.0000m   38.0423m  661.9578m 
 -467.97475m  134.2037n  700.0000m   38.1837m  661.8164m 
 -467.87475m  134.9314n  700.0000m   38.3252m  661.6749m 
 -467.77475m  135.6634n  700.0000m   38.4666m  661.5335m 
 -467.67475m  136.3996n  700.0000m   38.6080m  661.3921m 
 -467.57475m  137.1400n  700.0000m   38.7494m  661.2507m 
 -467.47475m  137.8847n  700.0000m   38.8908m  661.1093m 
 -467.37475m  138.6338n  700.0000m   39.0323m  660.9678m 
 -467.27475m  139.3871n  700.0000m   39.1737m  660.8264m 
 -467.17475m  140.1448n  700.0000m   39.3151m  660.6850m 
 -467.07475m  140.9068n  700.0000m   39.4565m  660.5436m 
 -466.97475m  141.6733n  700.0000m   39.5979m  660.4022m 
 -466.87475m  142.4442n  700.0000m   39.7394m  660.2607m 
 -466.77475m  143.2195n  700.0000m   39.8808m  660.1193m 
 -466.67475m  143.9993n  700.0000m   40.0222m  659.9779m 
 -466.57475m  144.7837n  700.0000m   40.1636m  659.8365m 
 -466.47475m  145.5725n  700.0000m   40.3050m  659.6951m 
 -466.37475m  146.3659n  700.0000m   40.4465m  659.5536m 
 -466.27475m  147.1639n  700.0000m   40.5879m  659.4122m 
 -466.17475m  147.9665n  700.0000m   40.7293m  659.2708m 
 -466.07475m  148.7737n  700.0000m   40.8707m  659.1294m 
 -465.97475m  149.5856n  700.0000m   41.0122m  658.9880m 
 -465.87475m  150.4022n  700.0000m   41.1536m  658.8465m 
 -465.77475m  151.2235n  700.0000m   41.2950m  658.7051m 
 -465.67475m  152.0495n  700.0000m   41.4364m  658.5637m 
 -465.57475m  152.8803n  700.0000m   41.5778m  658.4223m 
 -465.47475m  153.7159n  700.0000m   41.7193m  658.2809m 
 -465.37475m  154.5564n  700.0000m   41.8607m  658.1394m 
 -465.27475m  155.4017n  700.0000m   42.0021m  657.9980m 
 -465.17475m  156.2518n  700.0000m   42.1435m  657.8566m 
 -465.07475m  157.1069n  700.0000m   42.2849m  657.7152m 
 -464.97475m  157.9669n  700.0000m   42.4264m  657.5738m 
 -464.87475m  158.8319n  700.0000m   42.5678m  657.4323m 
 -464.77475m  159.7019n  700.0000m   42.7092m  657.2909m 
 -464.67475m  160.5770n  700.0000m   42.8506m  657.1495m 
 -464.57475m  161.4571n  700.0000m   42.9920m  657.0081m 
 -464.47475m  162.3422n  700.0000m   43.1335m  656.8666m 
 -464.37475m  163.2325n  700.0000m   43.2749m  656.7252m 
 -464.27475m  164.1280n  700.0000m   43.4163m  656.5838m 
 -464.17475m  165.0286n  700.0000m   43.5577m  656.4424m 
 -464.07475m  165.9344n  700.0000m   43.6992m  656.3010m 
 -463.97475m  166.8454n  700.0000m   43.8406m  656.1595m 
 -463.87475m  167.7617n  700.0000m   43.9820m  656.0181m 
 -463.77475m  168.6834n  700.0000m   44.1234m  655.8767m 
 -463.67475m  169.6103n  700.0000m   44.2648m  655.7353m 
 -463.57475m  170.5426n  700.0000m   44.4063m  655.5939m 
 -463.47475m  171.4803n  700.0000m   44.5477m  655.4524m 
 -463.37475m  172.4234n  700.0000m   44.6891m  655.3110m 
 -463.27475m  173.3720n  700.0000m   44.8305m  655.1696m 
 -463.17475m  174.3261n  700.0000m   44.9719m  655.0282m 
 -463.07475m  175.2856n  700.0000m   45.1134m  654.8868m 
 -462.97475m  176.2508n  700.0000m   45.2548m  654.7453m 
 -462.87475m  177.2215n  700.0000m   45.3962m  654.6039m 
 -462.77475m  178.1978n  700.0000m   45.5376m  654.4625m 
 -462.67475m  179.1798n  700.0000m   45.6791m  654.3211m 
 -462.57475m  180.1674n  700.0000m   45.8205m  654.1797m 
 -462.47475m  181.1608n  700.0000m   45.9619m  654.0382m 
 -462.37475m  182.1599n  700.0000m   46.1033m  653.8968m 
 -462.27475m  183.1648n  700.0000m   46.2447m  653.7554m 
 -462.17475m  184.1755n  700.0000m   46.3862m  653.6140m 
 -462.07475m  185.1920n  700.0000m   46.5276m  653.4726m 
 -461.97475m  186.2145n  700.0000m   46.6690m  653.3311m 
 -461.87475m  187.2428n  700.0000m   46.8104m  653.1897m 
 -461.77475m  188.2771n  700.0000m   46.9518m  653.0483m 
 -461.67475m  189.3174n  700.0000m   47.0933m  652.9069m 
 -461.57475m  190.3637n  700.0000m   47.2347m  652.7655m 
 -461.47475m  191.4161n  699.9999m   47.3761m  652.6240m 
 -461.37475m  192.4746n  699.9999m   47.5175m  652.4826m 
 -461.27475m  193.5391n  699.9999m   47.6589m  652.3412m 
 -461.17475m  194.6099n  699.9999m   47.8004m  652.1998m 
 -461.07475m  195.6868n  699.9999m   47.9418m  652.0584m 
 -460.97475m  196.7700n  699.9999m   48.0832m  651.9169m 
 -460.87475m  197.8595n  699.9999m   48.2246m  651.7755m 
 -460.77475m  198.9552n  699.9999m   48.3661m  651.6341m 
 -460.67475m  200.0573n  699.9999m   48.5075m  651.4927m 
 -460.57475m  201.1658n  699.9999m   48.6489m  651.3513m 
 -460.47475m  202.2807n  699.9999m   48.7903m  651.2098m 
 -460.37475m  203.4021n  699.9999m   48.9317m  651.0684m 
 -460.27475m  204.5300n  699.9999m   49.0732m  650.9270m 
 -460.17475m  205.6643n  699.9999m   49.2146m  650.7856m 
 -460.07475m  206.8053n  699.9999m   49.3560m  650.6442m 
 -459.97475m  207.9529n  699.9999m   49.4974m  650.5027m 
 -459.87475m  209.1071n  699.9999m   49.6388m  650.3613m 
 -459.77475m  210.2680n  699.9999m   49.7803m  650.2199m 
 -459.67475m  211.4356n  699.9999m   49.9217m  650.0785m 
 -459.57475m  212.6100n  699.9999m   50.0631m  649.9371m 
 -459.47475m  213.7912n  699.9999m   50.2045m  649.7956m 
 -459.37475m  214.9792n  699.9999m   50.3459m  649.6542m 
 -459.27475m  216.1741n  699.9999m   50.4874m  649.5128m 
 -459.17475m  217.3760n  699.9999m   50.6288m  649.3714m 
 -459.07475m  218.5848n  699.9999m   50.7702m  649.2300m 
 -458.97475m  219.8006n  699.9999m   50.9116m  649.0885m 
 -458.87475m  221.0235n  699.9999m   51.0531m  648.9471m 
 -458.77475m  222.2534n  699.9999m   51.1945m  648.8057m 
 -458.67475m  223.4905n  699.9999m   51.3359m  648.6643m 
 -458.57475m  224.7347n  699.9999m   51.4773m  648.5229m 
 -458.47475m  225.9862n  699.9999m   51.6187m  648.3814m 
 -458.37475m  227.2449n  699.9999m   51.7602m  648.2400m 
 -458.27475m  228.5109n  699.9999m   51.9016m  648.0986m 
 -458.17475m  229.7843n  699.9999m   52.0430m  647.9572m 
 -458.07475m  231.0650n  699.9999m   52.1844m  647.8158m 
 -457.97475m  232.3531n  699.9999m   52.3258m  647.6743m 
 -457.87475m  233.6488n  699.9999m   52.4673m  647.5329m 
 -457.77475m  234.9519n  699.9999m   52.6087m  647.3915m 
 -457.67475m  236.2626n  699.9999m   52.7501m  647.2501m 
 -457.57475m  237.5809n  699.9999m   52.8915m  647.1087m 
 -457.47475m  238.9068n  699.9999m   53.0329m  646.9672m 
 -457.37475m  240.2405n  699.9999m   53.1744m  646.8258m 
 -457.27475m  241.5818n  699.9999m   53.3158m  646.6844m 
 -457.17475m  242.9310n  699.9999m   53.4572m  646.5430m 
 -457.07475m  244.2879n  699.9999m   53.5986m  646.4016m 
 -456.97475m  245.6528n  699.9999m   53.7401m  646.2601m 
 -456.87475m  247.0255n  699.9999m   53.8815m  646.1187m 
 -456.77475m  248.4063n  699.9999m   54.0229m  645.9773m 
 -456.67475m  249.7950n  699.9999m   54.1643m  645.8359m 
 -456.57475m  251.1918n  699.9999m   54.3057m  645.6945m 
 -456.47475m  252.5967n  699.9999m   54.4472m  645.5530m 
 -456.37475m  254.0097n  699.9999m   54.5886m  645.4116m 
 -456.27475m  255.4310n  699.9999m   54.7300m  645.2702m 
 -456.17475m  256.8605n  699.9999m   54.8714m  645.1288m 
 -456.07475m  258.2983n  699.9999m   55.0128m  644.9874m 
 -455.97475m  259.7444n  699.9999m   55.1543m  644.8459m 
 -455.87475m  261.1989n  699.9999m   55.2957m  644.7045m 
 -455.77475m  262.6619n  699.9999m   55.4371m  644.5631m 
 -455.67475m  264.1334n  699.9999m   55.5785m  644.4217m 
 -455.57475m  265.6134n  699.9999m   55.7199m  644.2803m 
 -455.47475m  267.1020n  699.9999m   55.8614m  644.1388m 
 -455.37475m  268.5992n  699.9999m   56.0028m  643.9974m 
 -455.27475m  270.1051n  699.9999m   56.1442m  643.8560m 
 -455.17475m  271.6198n  699.9999m   56.2856m  643.7146m 
 -455.07475m  273.1433n  699.9999m   56.4271m  643.5732m 
 -454.97475m  274.6756n  699.9999m   56.5685m  643.4317m 
 -454.87475m  276.2168n  699.9999m   56.7099m  643.2903m 
 -454.77475m  277.7670n  699.9999m   56.8513m  643.1489m 
 -454.67475m  279.3262n  699.9999m   56.9927m  643.0075m 
 -454.57475m  280.8944n  699.9999m   57.1342m  642.8661m 
 -454.47475m  282.4717n  699.9999m   57.2756m  642.7246m 
 -454.37475m  284.0582n  699.9999m   57.4170m  642.5832m 
 -454.27475m  285.6539n  699.9999m   57.5584m  642.4418m 
 -454.17475m  287.2589n  699.9999m   57.6998m  642.3004m 
 -454.07475m  288.8732n  699.9999m   57.8413m  642.1590m 
 -453.97475m  290.4969n  699.9999m   57.9827m  642.0175m 
 -453.87475m  292.1300n  699.9999m   58.1241m  641.8761m 
 -453.77475m  293.7726n  699.9999m   58.2655m  641.7347m 
 -453.67475m  295.4248n  699.9999m   58.4069m  641.5933m 
 -453.57475m  297.0865n  699.9999m   58.5484m  641.4519m 
 -453.47475m  298.7579n  699.9999m   58.6898m  641.3104m 
 -453.37475m  300.4391n  699.9999m   58.8312m  641.1690m 
 -453.27475m  302.1300n  699.9999m   58.9726m  641.0276m 
 -453.17475m  303.8307n  699.9999m   59.1140m  640.8862m 
 -453.07475m  305.5413n  699.9999m   59.2555m  640.7448m 
 -452.97475m  307.2618n  699.9999m   59.3969m  640.6033m 
 -452.87475m  308.9924n  699.9999m   59.5383m  640.4619m 
 -452.77475m  310.7330n  699.9999m   59.6797m  640.3205m 
 -452.67475m  312.4837n  699.9999m   59.8212m  640.1791m 
 -452.57475m  314.2446n  699.9999m   59.9626m  640.0377m 
 -452.47475m  316.0158n  699.9999m   60.1040m  639.8962m 
 -452.37475m  317.7972n  699.9999m   60.2454m  639.7548m 
 -452.27475m  319.5891n  699.9999m   60.3868m  639.6134m 
 -452.17475m  321.3913n  699.9999m   60.5283m  639.4720m 
 -452.07475m  323.2040n  699.9999m   60.6697m  639.3306m 
 -451.97475m  325.0272n  699.9999m   60.8111m  639.1891m 
 -451.87475m  326.8611n  699.9999m   60.9525m  639.0477m 
 -451.77475m  328.7056n  699.9999m   61.0939m  638.9063m 
 -451.67475m  330.5609n  699.9999m   61.2354m  638.7649m 
 -451.57475m  332.4269n  699.9999m   61.3768m  638.6235m 
 -451.47475m  334.3038n  699.9999m   61.5182m  638.4820m 
 -451.37475m  336.1917n  699.9999m   61.6596m  638.3406m 
 -451.27475m  338.0905n  699.9999m   61.8010m  638.1992m 
 -451.17475m  340.0003n  699.9999m   61.9425m  638.0578m 
 -451.07475m  341.9213n  699.9999m   62.0839m  637.9164m 
 -450.97475m  343.8534n  699.9999m   62.2253m  637.7749m 
 -450.87475m  345.7968n  699.9999m   62.3667m  637.6335m 
 -450.77475m  347.7515n  699.9999m   62.5081m  637.4921m 
 -450.67475m  349.7176n  699.9999m   62.6496m  637.3507m 
 -450.57475m  351.6951n  699.9999m   62.7910m  637.2093m 
 -450.47475m  353.6841n  699.9999m   62.9324m  637.0679m 
 -450.37475m  355.6847n  699.9999m   63.0738m  636.9264m 
 -450.27475m  357.6970n  699.9999m   63.2153m  636.7850m 
 -450.17475m  359.7210n  699.9999m   63.3567m  636.6436m 
 -450.07475m  361.7567n  699.9999m   63.4981m  636.5022m 
 -449.97475m  363.8043n  699.9999m   63.6395m  636.3608m 
 -449.87475m  365.8638n  699.9999m   63.7809m  636.2193m 
 -449.77475m  367.9354n  699.9999m   63.9224m  636.0779m 
 -449.67475m  370.0190n  699.9999m   64.0638m  635.9365m 
 -449.57475m  372.1147n  699.9999m   64.2052m  635.7951m 
 -449.47475m  374.2226n  699.9999m   64.3466m  635.6537m 
 -449.37475m  376.3428n  699.9999m   64.4880m  635.5122m 
 -449.27475m  378.4753n  699.9999m   64.6295m  635.3708m 
 -449.17475m  380.6203n  699.9999m   64.7709m  635.2294m 
 -449.07475m  382.7778n  699.9999m   64.9123m  635.0880m 
 -448.97475m  384.9478n  699.9999m   65.0537m  634.9466m 
 -448.87475m  387.1305n  699.9999m   65.1951m  634.8051m 
 -448.77475m  389.3259n  699.9999m   65.3366m  634.6637m 
 -448.67475m  391.5341n  699.9999m   65.4780m  634.5223m 
 -448.57475m  393.7551n  699.9999m   65.6194m  634.3809m 
 -448.47475m  395.9891n  699.9999m   65.7608m  634.2395m 
 -448.37475m  398.2361n  699.9999m   65.9022m  634.0980m 
 -448.27475m  400.4962n  699.9999m   66.0437m  633.9566m 
 -448.17475m  402.7695n  699.9999m   66.1851m  633.8152m 
 -448.07475m  405.0560n  699.9999m   66.3265m  633.6738m 
 -447.97475m  407.3559n  699.9999m   66.4679m  633.5324m 
 -447.87475m  409.6691n  699.9999m   66.6094m  633.3910m 
 -447.77475m  411.9959n  699.9999m   66.7508m  633.2495m 
 -447.67475m  414.3362n  699.9999m   66.8922m  633.1081m 
 -447.57475m  416.6902n  699.9999m   67.0336m  632.9667m 
 -447.47475m  419.0578n  699.9999m   67.1750m  632.8253m 
 -447.37475m  421.4393n  699.9999m   67.3165m  632.6839m 
 -447.27475m  423.8347n  699.9999m   67.4579m  632.5424m 
 -447.17475m  426.2440n  699.9999m   67.5993m  632.4010m 
 -447.07475m  428.6674n  699.9999m   67.7407m  632.2596m 
 -446.97475m  431.1049n  699.9999m   67.8821m  632.1182m 
 -446.87475m  433.5567n  699.9999m   68.0236m  631.9768m 
 -446.77475m  436.0227n  699.9999m   68.1650m  631.8353m 
 -446.67475m  438.5031n  699.9999m   68.3064m  631.6939m 
 -446.57475m  440.9980n  699.9999m   68.4478m  631.5525m 
 -446.47475m  443.5075n  699.9999m   68.5892m  631.4111m 
 -446.37475m  446.0316n  699.9999m   68.7307m  631.2697m 
 -446.27475m  448.5704n  699.9999m   68.8721m  631.1282m 
 -446.17475m  451.1240n  699.9999m   69.0135m  630.9868m 
 -446.07475m  453.6926n  699.9999m   69.1549m  630.8454m 
 -445.97475m  456.2761n  699.9999m   69.2963m  630.7040m 
 -445.87475m  458.8747n  699.9999m   69.4378m  630.5626m 
 -445.77475m  461.4884n  699.9999m   69.5792m  630.4212m 
 -445.67475m  464.1174n  699.9999m   69.7206m  630.2797m 
 -445.57475m  466.7618n  699.9999m   69.8620m  630.1383m 
 -445.47475m  469.4216n  699.9999m   70.0035m  629.9969m 
 -445.37475m  472.0969n  699.9999m   70.1449m  629.8555m 
 -445.27475m  474.7879n  699.9999m   70.2863m  629.7141m 
 -445.17475m  477.4945n  699.9999m   70.4277m  629.5726m 
 -445.07475m  480.2170n  699.9999m   70.5691m  629.4312m 
 -444.97475m  482.9553n  699.9999m   70.7106m  629.2898m 
 -444.87475m  485.7096n  699.9999m   70.8520m  629.1484m 
 -444.77475m  488.4801n  699.9999m   70.9934m  629.0070m 
 -444.67475m  491.2667n  699.9999m   71.1348m  628.8655m 
 -444.57475m  494.0695n  699.9999m   71.2762m  628.7241m 
 -444.47475m  496.8888n  699.9999m   71.4177m  628.5827m 
 -444.37475m  499.7245n  699.9999m   71.5591m  628.4413m 
 -444.27475m  502.5767n  699.9999m   71.7005m  628.2999m 
 -444.17475m  505.4457n  699.9999m   71.8419m  628.1585m 
 -444.07475m  508.3314n  699.9999m   71.9833m  628.0170m 
 -443.97475m  511.2339n  699.9999m   72.1248m  627.8756m 
 -443.87475m  514.1534n  699.9999m   72.2662m  627.7342m 
 -443.77475m  517.0900n  699.9999m   72.4076m  627.5928m 
 -443.67475m  520.0437n  699.9999m   72.5490m  627.4514m 
 -443.57475m  523.0147n  699.9999m   72.6904m  627.3099m 
 -443.47475m  526.0031n  699.9999m   72.8319m  627.1685m 
 -443.37475m  529.0089n  699.9999m   72.9733m  627.0271m 
 -443.27475m  532.0322n  699.9999m   73.1147m  626.8857m 
 -443.17475m  535.0733n  699.9999m   73.2561m  626.7443m 
 -443.07475m  538.1321n  699.9999m   73.3975m  626.6029m 
 -442.97475m  541.2088n  699.9999m   73.5390m  626.4614m 
 -442.87475m  544.3035n  699.9999m   73.6804m  626.3200m 
 -442.77475m  547.4163n  699.9999m   73.8218m  626.1786m 
 -442.67475m  550.5473n  699.9999m   73.9632m  626.0372m 
 -442.57475m  553.6966n  699.9999m   74.1046m  625.8958m 
 -442.47475m  556.8643n  699.9999m   74.2461m  625.7543m 
 -442.37475m  560.0505n  699.9999m   74.3875m  625.6129m 
 -442.27475m  563.2554n  699.9999m   74.5289m  625.4715m 
 -442.17475m  566.4790n  699.9999m   74.6703m  625.3301m 
 -442.07475m  569.7214n  699.9999m   74.8118m  625.1887m 
 -441.97475m  572.9828n  699.9999m   74.9532m  625.0473m 
 -441.87475m  576.2633n  699.9999m   75.0946m  624.9058m 
 -441.77475m  579.5630n  699.9999m   75.2360m  624.7644m 
 -441.67475m  582.8820n  699.9999m   75.3774m  624.6230m 
 -441.57475m  586.2204n  699.9999m   75.5189m  624.4816m 
 -441.47475m  589.5784n  699.9998m   75.6603m  624.3402m 
 -441.37475m  592.9560n  699.9998m   75.8017m  624.1987m 
 -441.27475m  596.3533n  699.9998m   75.9431m  624.0573m 
 -441.17475m  599.7705n  699.9998m   76.0845m  623.9159m 
 -441.07475m  603.2078n  699.9998m   76.2260m  623.7745m 
 -440.97475m  606.6651n  699.9998m   76.3674m  623.6331m 
 -440.87475m  610.1427n  699.9998m   76.5088m  623.4917m 
 -440.77475m  613.6406n  699.9998m   76.6502m  623.3502m 
 -440.67475m  617.1591n  699.9998m   76.7916m  623.2088m 
 -440.57475m  620.6981n  699.9998m   76.9331m  623.0674m 
 -440.47475m  624.2578n  699.9998m   77.0745m  622.9260m 
 -440.37475m  627.8384n  699.9998m   77.2159m  622.7846m 
 -440.27475m  631.4399n  699.9998m   77.3573m  622.6431m 
 -440.17475m  635.0625n  699.9998m   77.4987m  622.5017m 
 -440.07475m  638.7063n  699.9998m   77.6402m  622.3603m 
 -439.97475m  642.3715n  699.9998m   77.7816m  622.2189m 
 -439.87475m  646.0581n  699.9998m   77.9230m  622.0775m 
 -439.77475m  649.7664n  699.9998m   78.0644m  621.9361m 
 -439.67475m  653.4963n  699.9998m   78.2058m  621.7946m 
 -439.57475m  657.2481n  699.9998m   78.3473m  621.6532m 
 -439.47475m  661.0219n  699.9998m   78.4887m  621.5118m 
 -439.37475m  664.8177n  699.9998m   78.6301m  621.3704m 
 -439.27475m  668.6359n  699.9998m   78.7715m  621.2290m 
 -439.17475m  672.4763n  699.9998m   78.9129m  621.0876m 
 -439.07475m  676.3393n  699.9998m   79.0544m  620.9461m 
 -438.97475m  680.2249n  699.9998m   79.1958m  620.8047m 
 -438.87475m  684.1333n  699.9998m   79.3372m  620.6633m 
 -438.77475m  688.0646n  699.9998m   79.4786m  620.5219m 
 -438.67475m  692.0190n  699.9998m   79.6200m  620.3805m 
 -438.57475m  695.9965n  699.9998m   79.7615m  620.2391m 
 -438.47475m  699.9973n  699.9998m   79.9029m  620.0976m 
 -438.37475m  704.0216n  699.9998m   80.0443m  619.9562m 
 -438.27475m  708.0694n  699.9998m   80.1857m  619.8148m 
 -438.17475m  712.1410n  699.9998m   80.3271m  619.6734m 
 -438.07475m  716.2365n  699.9998m   80.4686m  619.5320m 
 -437.97475m  720.3560n  699.9998m   80.6100m  619.3905m 
 -437.87475m  724.4996n  699.9998m   80.7514m  619.2491m 
 -437.77475m  728.6675n  699.9998m   80.8928m  619.1077m 
 -437.67475m  732.8599n  699.9998m   81.0343m  618.9663m 
 -437.57475m  737.0769n  699.9998m   81.1757m  618.8249m 
 -437.47475m  741.3186n  699.9998m   81.3171m  618.6835m 
 -437.37475m  745.5851n  699.9998m   81.4585m  618.5420m 
 -437.27475m  749.8767n  699.9998m   81.5999m  618.4006m 
 -437.17475m  754.1935n  699.9998m   81.7414m  618.2592m 
 -437.07475m  758.5356n  699.9998m   81.8828m  618.1178m 
 -436.97475m  762.9031n  699.9998m   82.0242m  617.9764m 
 -436.87475m  767.2963n  699.9998m   82.1656m  617.8350m 
 -436.77475m  771.7153n  699.9998m   82.3070m  617.6935m 
 -436.67475m  776.1602n  699.9998m   82.4485m  617.5521m 
 -436.57475m  780.6312n  699.9998m   82.5899m  617.4107m 
 -436.47475m  785.1284n  699.9998m   82.7313m  617.2693m 
 -436.37475m  789.6520n  699.9998m   82.8727m  617.1279m 
 -436.27475m  794.2022n  699.9998m   83.0141m  616.9865m 
 -436.17475m  798.7791n  699.9998m   83.1556m  616.8450m 
 -436.07475m  803.3828n  699.9998m   83.2970m  616.7036m 
 -435.97475m  808.0136n  699.9998m   83.4384m  616.5622m 
 -435.87475m  812.6715n  699.9998m   83.5798m  616.4208m 
 -435.77475m  817.3568n  699.9998m   83.7212m  616.2794m 
 -435.67475m  822.0696n  699.9998m   83.8627m  616.1380m 
 -435.57475m  826.8101n  699.9998m   84.0041m  615.9965m 
 -435.47475m  831.5784n  699.9998m   84.1455m  615.8551m 
 -435.37475m  836.3747n  699.9998m   84.2869m  615.7137m 
 -435.27475m  841.1992n  699.9998m   84.4283m  615.5723m 
 -435.17475m  846.0520n  699.9998m   84.5698m  615.4309m 
 -435.07475m  850.9334n  699.9998m   84.7112m  615.2895m 
 -434.97475m  855.8434n  699.9998m   84.8526m  615.1480m 
 -434.87475m  860.7822n  699.9998m   84.9940m  615.0066m 
 -434.77475m  865.7501n  699.9998m   85.1354m  614.8652m 
 -434.67475m  870.7471n  699.9998m   85.2769m  614.7238m 
 -434.57475m  875.7735n  699.9998m   85.4183m  614.5824m 
 -434.47475m  880.8295n  699.9998m   85.5597m  614.4410m 
 -434.37475m  885.9151n  699.9998m   85.7011m  614.2995m 
 -434.27475m  891.0306n  699.9998m   85.8425m  614.1581m 
 -434.17475m  896.1762n  699.9998m   85.9840m  614.0167m 
 -434.07475m  901.3521n  699.9998m   86.1254m  613.8753m 
 -433.97475m  906.5584n  699.9998m   86.2668m  613.7339m 
 -433.87475m  911.7952n  699.9998m   86.4082m  613.5925m 
 -433.77475m  917.0629n  699.9998m   86.5496m  613.4510m 
 -433.67475m  922.3615n  699.9998m   86.6911m  613.3096m 
 -433.57475m  927.6913n  699.9998m   86.8325m  613.1682m 
 -433.47475m  933.0524n  699.9998m   86.9739m  613.0268m 
 -433.37475m  938.4450n  699.9998m   87.1153m  612.8854m 
 -433.27475m  943.8694n  699.9998m   87.2567m  612.7440m 
 -433.17475m  949.3256n  699.9998m   87.3982m  612.6026m 
 -433.07475m  954.8140n  699.9998m   87.5396m  612.4611m 
 -432.97475m  960.3346n  699.9998m   87.6810m  612.3197m 
 -432.87475m  965.8877n  699.9998m   87.8224m  612.1783m 
 -432.77475m  971.4734n  699.9998m   87.9638m  612.0369m 
 -432.67475m  977.0920n  699.9998m   88.1053m  611.8955m 
 -432.57475m  982.7437n  699.9998m   88.2467m  611.7541m 
 -432.47475m  988.4286n  699.9998m   88.3881m  611.6126m 
 -432.37475m  994.1470n  699.9997m   88.5295m  611.4712m 
 -432.27475m  999.8990n  699.9997m   88.6709m  611.3298m 
 -432.17475m    1.0057u  699.9997m   88.8124m  611.1884m 
 -432.07475m    1.0115u  699.9997m   88.9538m  611.0470m 
 -431.97475m    1.0174u  699.9997m   89.0952m  610.9056m 
 -431.87475m    1.0232u  699.9997m   89.2366m  610.7641m 
 -431.77475m    1.0292u  699.9997m   89.3780m  610.6227m 
 -431.67475m    1.0351u  699.9997m   89.5195m  610.4813m 
 -431.57475m    1.0411u  699.9997m   89.6609m  610.3399m 
 -431.47475m    1.0472u  699.9997m   89.8023m  610.1985m 
 -431.37475m    1.0532u  699.9997m   89.9437m  610.0571m 
 -431.27475m    1.0593u  699.9997m   90.0851m  609.9157m 
 -431.17475m    1.0655u  699.9997m   90.2266m  609.7742m 
 -431.07475m    1.0716u  699.9997m   90.3680m  609.6328m 
 -430.97475m    1.0778u  699.9997m   90.5094m  609.4914m 
 -430.87475m    1.0841u  699.9997m   90.6508m  609.3500m 
 -430.77475m    1.0904u  699.9997m   90.7922m  609.2086m 
 -430.67475m    1.0967u  699.9997m   90.9337m  609.0672m 
 -430.57475m    1.1030u  699.9997m   91.0751m  608.9257m 
 -430.47475m    1.1094u  699.9997m   91.2165m  608.7843m 
 -430.37475m    1.1159u  699.9997m   91.3579m  608.6429m 
 -430.27475m    1.1223u  699.9997m   91.4993m  608.5015m 
 -430.17475m    1.1288u  699.9997m   91.6408m  608.3601m 
 -430.07475m    1.1354u  699.9997m   91.7822m  608.2187m 
 -429.97475m    1.1420u  699.9997m   91.9236m  608.0773m 
 -429.87475m    1.1486u  699.9997m   92.0650m  607.9358m 
 -429.77475m    1.1552u  699.9997m   92.2064m  607.7944m 
 -429.67475m    1.1619u  699.9997m   92.3479m  607.6530m 
 -429.57475m    1.1687u  699.9997m   92.4893m  607.5116m 
 -429.47475m    1.1755u  699.9997m   92.6307m  607.3702m 
 -429.37475m    1.1823u  699.9997m   92.7721m  607.2288m 
 -429.27475m    1.1891u  699.9997m   92.9135m  607.0874m 
 -429.17475m    1.1960u  699.9997m   93.0550m  606.9459m 
 -429.07475m    1.2030u  699.9997m   93.1964m  606.8045m 
 -428.97475m    1.2100u  699.9997m   93.3378m  606.6631m 
 -428.87475m    1.2170u  699.9997m   93.4792m  606.5217m 
 -428.77475m    1.2241u  699.9997m   93.6206m  606.3803m 
 -428.67475m    1.2312u  699.9997m   93.7621m  606.2389m 
 -428.57475m    1.2383u  699.9997m   93.9035m  606.0975m 
 -428.47475m    1.2455u  699.9997m   94.0449m  605.9560m 
 -428.37475m    1.2527u  699.9997m   94.1863m  605.8146m 
 -428.27475m    1.2600u  699.9997m   94.3277m  605.6732m 
 -428.17475m    1.2673u  699.9997m   94.4691m  605.5318m 
 -428.07475m    1.2747u  699.9997m   94.6106m  605.3904m 
 -427.97475m    1.2821u  699.9997m   94.7520m  605.2490m 
 -427.87475m    1.2895u  699.9997m   94.8934m  605.1076m 
 -427.77475m    1.2970u  699.9997m   95.0348m  604.9661m 
 -427.67475m    1.3046u  699.9997m   95.1762m  604.8247m 
 -427.57475m    1.3122u  699.9997m   95.3177m  604.6833m 
 -427.47475m    1.3198u  699.9997m   95.4591m  604.5419m 
 -427.37475m    1.3275u  699.9997m   95.6005m  604.4005m 
 -427.27475m    1.3352u  699.9997m   95.7419m  604.2591m 
 -427.17475m    1.3429u  699.9997m   95.8833m  604.1177m 
 -427.07475m    1.3507u  699.9997m   96.0248m  603.9762m 
 -426.97475m    1.3586u  699.9997m   96.1662m  603.8348m 
 -426.87475m    1.3665u  699.9997m   96.3076m  603.6934m 
 -426.77475m    1.3744u  699.9997m   96.4490m  603.5520m 
 -426.67475m    1.3824u  699.9997m   96.5904m  603.4106m 
 -426.57475m    1.3905u  699.9997m   96.7319m  603.2692m 
 -426.47475m    1.3986u  699.9997m   96.8733m  603.1278m 
 -426.37475m    1.4067u  699.9996m   97.0147m  602.9864m 
 -426.27475m    1.4149u  699.9996m   97.1561m  602.8449m 
 -426.17475m    1.4231u  699.9996m   97.2975m  602.7035m 
 -426.07475m    1.4314u  699.9996m   97.4390m  602.5621m 
 -425.97475m    1.4397u  699.9996m   97.5804m  602.4207m 
 -425.87475m    1.4481u  699.9996m   97.7218m  602.2793m 
 -425.77475m    1.4565u  699.9996m   97.8632m  602.1379m 
 -425.67475m    1.4650u  699.9996m   98.0046m  601.9965m 
 -425.57475m    1.4736u  699.9996m   98.1461m  601.8551m 
 -425.47475m    1.4821u  699.9996m   98.2875m  601.7136m 
 -425.37475m    1.4908u  699.9996m   98.4289m  601.5722m 
 -425.27475m    1.4994u  699.9996m   98.5703m  601.4308m 
 -425.17475m    1.5082u  699.9996m   98.7117m  601.2894m 
 -425.07475m    1.5170u  699.9996m   98.8531m  601.1480m 
 -424.97475m    1.5258u  699.9996m   98.9946m  601.0066m 
 -424.87475m    1.5347u  699.9996m   99.1360m  600.8652m 
 -424.77475m    1.5436u  699.9996m   99.2774m  600.7238m 
 -424.67475m    1.5526u  699.9996m   99.4188m  600.5823m 
 -424.57475m    1.5617u  699.9996m   99.5602m  600.4409m 
 -424.47475m    1.5708u  699.9996m   99.7017m  600.2995m 
 -424.37475m    1.5799u  699.9996m   99.8431m  600.1581m 
 -424.27475m    1.5891u  699.9996m   99.9845m  600.0167m 
 -424.17475m    1.5984u  699.9996m  100.1259m  599.8753m 
 -424.07475m    1.6077u  699.9996m  100.2673m  599.7339m 
 -423.97475m    1.6171u  699.9996m  100.4088m  599.5925m 
 -423.87475m    1.6265u  699.9996m  100.5502m  599.4510m 
 -423.77475m    1.6360u  699.9996m  100.6916m  599.3096m 
 -423.67475m    1.6455u  699.9996m  100.8330m  599.1682m 
 -423.57475m    1.6551u  699.9996m  100.9744m  599.0268m 
 -423.47475m    1.6648u  699.9996m  101.1159m  598.8854m 
 -423.37475m    1.6745u  699.9996m  101.2573m  598.7440m 
 -423.27475m    1.6843u  699.9996m  101.3987m  598.6026m 
 -423.17475m    1.6941u  699.9996m  101.5401m  598.4612m 
 -423.07475m    1.7040u  699.9996m  101.6815m  598.3197m 
 -422.97475m    1.7139u  699.9996m  101.8230m  598.1783m 
 -422.87475m    1.7239u  699.9996m  101.9644m  598.0369m 
 -422.77475m    1.7340u  699.9996m  102.1058m  597.8955m 
 -422.67475m    1.7441u  699.9996m  102.2472m  597.7541m 
 -422.57475m    1.7543u  699.9996m  102.3886m  597.6127m 
 -422.47475m    1.7645u  699.9996m  102.5300m  597.4713m 
 -422.37475m    1.7748u  699.9996m  102.6715m  597.3299m 
 -422.27475m    1.7852u  699.9996m  102.8129m  597.1885m 
 -422.17475m    1.7956u  699.9996m  102.9543m  597.0470m 
 -422.07475m    1.8061u  699.9996m  103.0957m  596.9056m 
 -421.97475m    1.8167u  699.9995m  103.2371m  596.7642m 
 -421.87475m    1.8273u  699.9995m  103.3786m  596.6228m 
 -421.77475m    1.8379u  699.9995m  103.5200m  596.4814m 
 -421.67475m    1.8487u  699.9995m  103.6614m  596.3400m 
 -421.57475m    1.8595u  699.9995m  103.8028m  596.1986m 
 -421.47475m    1.8703u  699.9995m  103.9442m  596.0572m 
 -421.37475m    1.8813u  699.9995m  104.0857m  595.9158m 
 -421.27475m    1.8923u  699.9995m  104.2271m  595.7744m 
 -421.17475m    1.9033u  699.9995m  104.3685m  595.6329m 
 -421.07475m    1.9144u  699.9995m  104.5099m  595.4915m 
 -420.97475m    1.9256u  699.9995m  104.6513m  595.3501m 
 -420.87475m    1.9369u  699.9995m  104.7927m  595.2087m 
 -420.77475m    1.9482u  699.9995m  104.9342m  595.0673m 
 -420.67475m    1.9596u  699.9995m  105.0756m  594.9259m 
 -420.57475m    1.9711u  699.9995m  105.2170m  594.7845m 
 -420.47475m    1.9826u  699.9995m  105.3584m  594.6431m 
 -420.37475m    1.9942u  699.9995m  105.4998m  594.5017m 
 -420.27475m    2.0058u  699.9995m  105.6413m  594.3603m 
 -420.17475m    2.0176u  699.9995m  105.7827m  594.2188m 
 -420.07475m    2.0294u  699.9995m  105.9241m  594.0774m 
 -419.97475m    2.0412u  699.9995m  106.0655m  593.9360m 
 -419.87475m    2.0532u  699.9995m  106.2069m  593.7946m 
 -419.77475m    2.0652u  699.9995m  106.3483m  593.6532m 
 -419.67475m    2.0773u  699.9995m  106.4898m  593.5118m 
 -419.57475m    2.0894u  699.9995m  106.6312m  593.3704m 
 -419.47475m    2.1017u  699.9995m  106.7726m  593.2290m 
 -419.37475m    2.1140u  699.9995m  106.9140m  593.0876m 
 -419.27475m    2.1263u  699.9995m  107.0554m  592.9462m 
 -419.17475m    2.1388u  699.9995m  107.1969m  592.8048m 
 -419.07475m    2.1513u  699.9995m  107.3383m  592.6633m 
 -418.97475m    2.1639u  699.9995m  107.4797m  592.5219m 
 -418.87475m    2.1766u  699.9995m  107.6211m  592.3805m 
 -418.77475m    2.1893u  699.9995m  107.7625m  592.2391m 
 -418.67475m    2.2021u  699.9995m  107.9040m  592.0977m 
 -418.57475m    2.2150u  699.9995m  108.0454m  591.9563m 
 -418.47475m    2.2280u  699.9994m  108.1868m  591.8149m 
 -418.37475m    2.2411u  699.9994m  108.3282m  591.6735m 
 -418.27475m    2.2542u  699.9994m  108.4696m  591.5321m 
 -418.17475m    2.2674u  699.9994m  108.6110m  591.3907m 
 -418.07475m    2.2807u  699.9994m  108.7525m  591.2493m 
 -417.97475m    2.2941u  699.9994m  108.8939m  591.1078m 
 -417.87475m    2.3075u  699.9994m  109.0353m  590.9664m 
 -417.77475m    2.3210u  699.9994m  109.1767m  590.8250m 
 -417.67475m    2.3346u  699.9994m  109.3181m  590.6836m 
 -417.57475m    2.3483u  699.9994m  109.4596m  590.5422m 
 -417.47475m    2.3621u  699.9994m  109.6010m  590.4008m 
 -417.37475m    2.3759u  699.9994m  109.7424m  590.2594m 
 -417.27475m    2.3899u  699.9994m  109.8838m  590.1180m 
 -417.17475m    2.4039u  699.9994m  110.0252m  589.9766m 
 -417.07475m    2.4180u  699.9994m  110.1666m  589.8352m 
 -416.97475m    2.4321u  699.9994m  110.3081m  589.6938m 
 -416.87475m    2.4464u  699.9994m  110.4495m  589.5524m 
 -416.77475m    2.4608u  699.9994m  110.5909m  589.4110m 
 -416.67475m    2.4752u  699.9994m  110.7323m  589.2696m 
 -416.57475m    2.4897u  699.9994m  110.8737m  589.1281m 
 -416.47475m    2.5043u  699.9994m  111.0151m  588.9867m 
 -416.37475m    2.5190u  699.9994m  111.1566m  588.8453m 
 -416.27475m    2.5338u  699.9994m  111.2980m  588.7039m 
 -416.17475m    2.5487u  699.9994m  111.4394m  588.5625m 
 -416.07475m    2.5636u  699.9994m  111.5808m  588.4211m 
 -415.97475m    2.5787u  699.9994m  111.7222m  588.2797m 
 -415.87475m    2.5938u  699.9994m  111.8637m  588.1383m 
 -415.77475m    2.6090u  699.9994m  112.0051m  587.9969m 
 -415.67475m    2.6243u  699.9994m  112.1465m  587.8555m 
 -415.57475m    2.6397u  699.9994m  112.2879m  587.7141m 
 -415.47475m    2.6552u  699.9993m  112.4293m  587.5727m 
 -415.37475m    2.6708u  699.9993m  112.5707m  587.4313m 
 -415.27475m    2.6865u  699.9993m  112.7122m  587.2899m 
 -415.17475m    2.7023u  699.9993m  112.8536m  587.1485m 
 -415.07475m    2.7182u  699.9993m  112.9950m  587.0071m 
 -414.97475m    2.7341u  699.9993m  113.1364m  586.8656m 
 -414.87475m    2.7502u  699.9993m  113.2778m  586.7242m 
 -414.77475m    2.7664u  699.9993m  113.4192m  586.5828m 
 -414.67475m    2.7826u  699.9993m  113.5607m  586.4414m 
 -414.57475m    2.7990u  699.9993m  113.7021m  586.3000m 
 -414.47475m    2.8154u  699.9993m  113.8435m  586.1586m 
 -414.37475m    2.8320u  699.9993m  113.9849m  586.0172m 
 -414.27475m    2.8486u  699.9993m  114.1263m  585.8758m 
 -414.17475m    2.8653u  699.9993m  114.2678m  585.7344m 
 -414.07475m    2.8822u  699.9993m  114.4092m  585.5930m 
 -413.97475m    2.8991u  699.9993m  114.5506m  585.4516m 
 -413.87475m    2.9162u  699.9993m  114.6920m  585.3102m 
 -413.77475m    2.9333u  699.9993m  114.8334m  585.1688m 
 -413.67475m    2.9506u  699.9993m  114.9748m  585.0274m 
 -413.57475m    2.9679u  699.9993m  115.1163m  584.8860m 
 -413.47475m    2.9854u  699.9993m  115.2577m  584.7446m 
 -413.37475m    3.0029u  699.9993m  115.3991m  584.6032m 
 -413.27475m    3.0206u  699.9993m  115.5405m  584.4618m 
 -413.17475m    3.0384u  699.9993m  115.6819m  584.3204m 
 -413.07475m    3.0562u  699.9993m  115.8233m  584.1790m 
 -412.97475m    3.0742u  699.9992m  115.9648m  584.0376m 
 -412.87475m    3.0923u  699.9992m  116.1062m  583.8962m 
 -412.77475m    3.1105u  699.9992m  116.2476m  583.7548m 
 -412.67475m    3.1288u  699.9992m  116.3890m  583.6134m 
 -412.57475m    3.1472u  699.9992m  116.5304m  583.4719m 
 -412.47475m    3.1657u  699.9992m  116.6718m  583.3305m 
 -412.37475m    3.1844u  699.9992m  116.8133m  583.1891m 
 -412.27475m    3.2031u  699.9992m  116.9547m  583.0477m 
 -412.17475m    3.2220u  699.9992m  117.0961m  582.9063m 
 -412.07475m    3.2409u  699.9992m  117.2375m  582.7649m 
 -411.97475m    3.2600u  699.9992m  117.3789m  582.6235m 
 -411.87475m    3.2792u  699.9992m  117.5203m  582.4821m 
 -411.77475m    3.2985u  699.9992m  117.6618m  582.3407m 
 -411.67475m    3.3180u  699.9992m  117.8032m  582.1993m 
 -411.57475m    3.3375u  699.9992m  117.9446m  582.0579m 
 -411.47475m    3.3572u  699.9992m  118.0860m  581.9165m 
 -411.37475m    3.3769u  699.9992m  118.2274m  581.7751m 
 -411.27475m    3.3968u  699.9992m  118.3688m  581.6337m 
 -411.17475m    3.4169u  699.9992m  118.5103m  581.4923m 
 -411.07475m    3.4370u  699.9992m  118.6517m  581.3509m 
 -410.97475m    3.4572u  699.9992m  118.7931m  581.2095m 
 -410.87475m    3.4776u  699.9991m  118.9345m  581.0681m 
 -410.77475m    3.4981u  699.9991m  119.0759m  580.9267m 
 -410.67475m    3.5187u  699.9991m  119.2173m  580.7853m 
 -410.57475m    3.5395u  699.9991m  119.3588m  580.6439m 
 -410.47475m    3.5603u  699.9991m  119.5002m  580.5025m 
 -410.37475m    3.5813u  699.9991m  119.6416m  580.3611m 
 -410.27475m    3.6024u  699.9991m  119.7830m  580.2197m 
 -410.17475m    3.6237u  699.9991m  119.9244m  580.0783m 
 -410.07475m    3.6450u  699.9991m  120.0658m  579.9369m 
 -409.97475m    3.6665u  699.9991m  120.2073m  579.7955m 
 -409.87475m    3.6882u  699.9991m  120.3487m  579.6541m 
 -409.77475m    3.7099u  699.9991m  120.4901m  579.5127m 
 -409.67475m    3.7318u  699.9991m  120.6315m  579.3713m 
 -409.57475m    3.7538u  699.9991m  120.7729m  579.2299m 
 -409.47475m    3.7760u  699.9991m  120.9143m  579.0885m 
 -409.37475m    3.7982u  699.9991m  121.0558m  578.9471m 
 -409.27475m    3.8207u  699.9991m  121.1972m  578.8057m 
 -409.17475m    3.8432u  699.9991m  121.3386m  578.6643m 
 -409.07475m    3.8659u  699.9991m  121.4800m  578.5229m 
 -408.97475m    3.8887u  699.9991m  121.6214m  578.3815m 
 -408.87475m    3.9117u  699.9990m  121.7628m  578.2401m 
 -408.77475m    3.9347u  699.9990m  121.9042m  578.0987m 
 -408.67475m    3.9580u  699.9990m  122.0457m  577.9573m 
 -408.57475m    3.9813u  699.9990m  122.1871m  577.8159m 
 -408.47475m    4.0048u  699.9990m  122.3285m  577.6745m 
 -408.37475m    4.0285u  699.9990m  122.4699m  577.5331m 
 -408.27475m    4.0523u  699.9990m  122.6113m  577.3917m 
 -408.17475m    4.0762u  699.9990m  122.7527m  577.2503m 
 -408.07475m    4.1003u  699.9990m  122.8942m  577.1089m 
 -407.97475m    4.1245u  699.9990m  123.0356m  576.9675m 
 -407.87475m    4.1489u  699.9990m  123.1770m  576.8261m 
 -407.77475m    4.1734u  699.9990m  123.3184m  576.6848m 
 -407.67475m    4.1980u  699.9990m  123.4598m  576.5434m 
 -407.57475m    4.2228u  699.9990m  123.6012m  576.4020m 
 -407.47475m    4.2478u  699.9990m  123.7427m  576.2606m 
 -407.37475m    4.2729u  699.9990m  123.8841m  576.1192m 
 -407.27475m    4.2982u  699.9990m  124.0255m  575.9778m 
 -407.17475m    4.3236u  699.9989m  124.1669m  575.8364m 
 -407.07475m    4.3491u  699.9989m  124.3083m  575.6950m 
 -406.97475m    4.3748u  699.9989m  124.4497m  575.5536m 
 -406.87475m    4.4007u  699.9989m  124.5911m  575.4122m 
 -406.77475m    4.4267u  699.9989m  124.7326m  575.2708m 
 -406.67475m    4.4529u  699.9989m  124.8740m  575.1294m 
 -406.57475m    4.4792u  699.9989m  125.0154m  574.9880m 
 -406.47475m    4.5057u  699.9989m  125.1568m  574.8466m 
 -406.37475m    4.5323u  699.9989m  125.2982m  574.7052m 
 -406.27475m    4.5591u  699.9989m  125.4396m  574.5638m 
 -406.17475m    4.5861u  699.9989m  125.5811m  574.4224m 
 -406.07475m    4.6132u  699.9989m  125.7225m  574.2810m 
 -405.97475m    4.6405u  699.9989m  125.8639m  574.1396m 
 -405.87475m    4.6680u  699.9989m  126.0053m  573.9982m 
 -405.77475m    4.6956u  699.9989m  126.1467m  573.8568m 
 -405.67475m    4.7234u  699.9989m  126.2881m  573.7155m 
 -405.57475m    4.7513u  699.9988m  126.4295m  573.5741m 
 -405.47475m    4.7795u  699.9988m  126.5710m  573.4327m 
 -405.37475m    4.8078u  699.9988m  126.7124m  573.2913m 
 -405.27475m    4.8362u  699.9988m  126.8538m  573.1499m 
 -405.17475m    4.8648u  699.9988m  126.9952m  573.0085m 
 -405.07475m    4.8936u  699.9988m  127.1366m  572.8671m 
 -404.97475m    4.9226u  699.9988m  127.2780m  572.7257m 
 -404.87475m    4.9518u  699.9988m  127.4194m  572.5843m 
 -404.77475m    4.9811u  699.9988m  127.5609m  572.4429m 
 -404.67475m    5.0106u  699.9988m  127.7023m  572.3015m 
 -404.57475m    5.0403u  699.9988m  127.8437m  572.1601m 
 -404.47475m    5.0701u  699.9988m  127.9851m  572.0187m 
 -404.37475m    5.1001u  699.9988m  128.1265m  571.8774m 
 -404.27475m    5.1304u  699.9988m  128.2679m  571.7360m 
 -404.17475m    5.1607u  699.9987m  128.4093m  571.5946m 
 -404.07475m    5.1913u  699.9987m  128.5508m  571.4532m 
 -403.97475m    5.2221u  699.9987m  128.6922m  571.3118m 
 -403.87475m    5.2530u  699.9987m  128.8336m  571.1704m 
 -403.77475m    5.2842u  699.9987m  128.9750m  571.0290m 
 -403.67475m    5.3155u  699.9987m  129.1164m  570.8876m 
 -403.57475m    5.3470u  699.9987m  129.2578m  570.7462m 
 -403.47475m    5.3787u  699.9987m  129.3992m  570.6048m 
 -403.37475m    5.4106u  699.9987m  129.5407m  570.4634m 
 -403.27475m    5.4426u  699.9987m  129.6821m  570.3221m 
 -403.17475m    5.4749u  699.9987m  129.8235m  570.1807m 
 -403.07475m    5.5074u  699.9987m  129.9649m  570.0393m 
 -402.97475m    5.5400u  699.9987m  130.1063m  569.8979m 
 -402.87475m    5.5729u  699.9987m  130.2477m  569.7565m 
 -402.77475m    5.6059u  699.9986m  130.3891m  569.6151m 
 -402.67475m    5.6392u  699.9986m  130.5305m  569.4737m 
 -402.57475m    5.6726u  699.9986m  130.6720m  569.3323m 
 -402.47475m    5.7063u  699.9986m  130.8134m  569.1910m 
 -402.37475m    5.7401u  699.9986m  130.9548m  569.0496m 
 -402.27475m    5.7742u  699.9986m  131.0962m  568.9082m 
 -402.17475m    5.8084u  699.9986m  131.2376m  568.7668m 
 -402.07475m    5.8429u  699.9986m  131.3790m  568.6254m 
 -401.97475m    5.8776u  699.9986m  131.5204m  568.4840m 
 -401.87475m    5.9125u  699.9986m  131.6619m  568.3426m 
 -401.77475m    5.9476u  699.9986m  131.8033m  568.2012m 
 -401.67475m    5.9829u  699.9986m  131.9447m  568.0599m 
 -401.57475m    6.0184u  699.9985m  132.0861m  567.9185m 
 -401.47475m    6.0541u  699.9985m  132.2275m  567.7771m 
 -401.37475m    6.0901u  699.9985m  132.3689m  567.6357m 
 -401.27475m    6.1262u  699.9985m  132.5103m  567.4943m 
 -401.17475m    6.1626u  699.9985m  132.6517m  567.3529m 
 -401.07475m    6.1992u  699.9985m  132.7932m  567.2115m 
 -400.97475m    6.2360u  699.9985m  132.9346m  567.0702m 
 -400.87475m    6.2730u  699.9985m  133.0760m  566.9288m 
 -400.77475m    6.3103u  699.9985m  133.2174m  566.7874m 
 -400.67475m    6.3478u  699.9985m  133.3588m  566.6460m 
 -400.57475m    6.3855u  699.9985m  133.5002m  566.5046m 
 -400.47475m    6.4234u  699.9985m  133.6416m  566.3632m 
 -400.37475m    6.4616u  699.9984m  133.7830m  566.2219m 
 -400.27475m    6.5000u  699.9984m  133.9245m  566.0805m 
 -400.17475m    6.5386u  699.9984m  134.0659m  565.9391m 
 -400.07475m    6.5775u  699.9984m  134.2073m  565.7977m 
 -399.97475m    6.6166u  699.9984m  134.3487m  565.6563m 
 -399.87475m    6.6559u  699.9984m  134.4901m  565.5149m 
 -399.77475m    6.6955u  699.9984m  134.6315m  565.3736m 
 -399.67475m    6.7353u  699.9984m  134.7729m  565.2322m 
 -399.57475m    6.7753u  699.9984m  134.9143m  565.0908m 
 -399.47475m    6.8156u  699.9984m  135.0558m  564.9494m 
 -399.37475m    6.8561u  699.9984m  135.1972m  564.8080m 
 -399.27475m    6.8969u  699.9983m  135.3386m  564.6667m 
 -399.17475m    6.9379u  699.9983m  135.4800m  564.5253m 
 -399.07475m    6.9792u  699.9983m  135.6214m  564.3839m 
 -398.97475m    7.0207u  699.9983m  135.7628m  564.2425m 
 -398.87475m    7.0625u  699.9983m  135.9042m  564.1011m 
 -398.77475m    7.1045u  699.9983m  136.0456m  563.9598m 
 -398.67475m    7.1468u  699.9983m  136.1870m  563.8184m 
 -398.57475m    7.1893u  699.9983m  136.3285m  563.6770m 
 -398.47475m    7.2321u  699.9983m  136.4699m  563.5356m 
 -398.37475m    7.2751u  699.9983m  136.6113m  563.3942m 
 -398.27475m    7.3184u  699.9982m  136.7527m  563.2529m 
 -398.17475m    7.3620u  699.9982m  136.8941m  563.1115m 
 -398.07475m    7.4058u  699.9982m  137.0355m  562.9701m 
 -397.97475m    7.4499u  699.9982m  137.1769m  562.8287m 
 -397.87475m    7.4942u  699.9982m  137.3183m  562.6874m 
 -397.77475m    7.5388u  699.9982m  137.4597m  562.5460m 
 -397.67475m    7.5837u  699.9982m  137.6012m  562.4046m 
 -397.57475m    7.6289u  699.9982m  137.7426m  562.2632m 
 -397.47475m    7.6743u  699.9982m  137.8840m  562.1219m 
 -397.37475m    7.7200u  699.9981m  138.0254m  561.9805m 
 -397.27475m    7.7660u  699.9981m  138.1668m  561.8391m 
 -397.17475m    7.8123u  699.9981m  138.3082m  561.6977m 
 -397.07475m    7.8588u  699.9981m  138.4496m  561.5564m 
 -396.97475m    7.9056u  699.9981m  138.5910m  561.4150m 
 -396.87475m    7.9527u  699.9981m  138.7324m  561.2736m 
 -396.77475m    8.0001u  699.9981m  138.8739m  561.1322m 
 -396.67475m    8.0478u  699.9981m  139.0153m  560.9909m 
 -396.57475m    8.0957u  699.9981m  139.1567m  560.8495m 
 -396.47475m    8.1440u  699.9980m  139.2981m  560.7081m 
 -396.37475m    8.1925u  699.9980m  139.4395m  560.5667m 
 -396.27475m    8.2414u  699.9980m  139.5809m  560.4254m 
 -396.17475m    8.2905u  699.9980m  139.7223m  560.2840m 
 -396.07475m    8.3399u  699.9980m  139.8637m  560.1426m 
 -395.97475m    8.3896u  699.9980m  140.0051m  560.0012m 
 -395.87475m    8.4397u  699.9980m  140.1465m  559.8599m 
 -395.77475m    8.4900u  699.9980m  140.2880m  559.7185m 
 -395.67475m    8.5406u  699.9980m  140.4294m  559.5771m 
 -395.57475m    8.5915u  699.9979m  140.5708m  559.4358m 
 -395.47475m    8.6428u  699.9979m  140.7122m  559.2944m 
 -395.37475m    8.6943u  699.9979m  140.8536m  559.1530m 
 -395.27475m    8.7462u  699.9979m  140.9950m  559.0117m 
 -395.17475m    8.7984u  699.9979m  141.1364m  558.8703m 
 -395.07475m    8.8509u  699.9979m  141.2778m  558.7289m 
 -394.97475m    8.9037u  699.9979m  141.4192m  558.5875m 
 -394.87475m    8.9568u  699.9979m  141.5606m  558.4462m 
 -394.77475m    9.0103u  699.9978m  141.7020m  558.3048m 
 -394.67475m    9.0640u  699.9978m  141.8435m  558.1634m 
 -394.57475m    9.1181u  699.9978m  141.9849m  558.0221m 
 -394.47475m    9.1726u  699.9978m  142.1263m  557.8807m 
 -394.37475m    9.2273u  699.9978m  142.2677m  557.7393m 
 -394.27475m    9.2824u  699.9978m  142.4091m  557.5980m 
 -394.17475m    9.3378u  699.9978m  142.5505m  557.4566m 
 -394.07475m    9.3936u  699.9978m  142.6919m  557.3152m 
 -393.97475m    9.4497u  699.9977m  142.8333m  557.1739m 
 -393.87475m    9.5061u  699.9977m  142.9747m  557.0325m 
 -393.77475m    9.5629u  699.9977m  143.1161m  556.8912m 
 -393.67475m    9.6200u  699.9977m  143.2575m  556.7498m 
 -393.57475m    9.6775u  699.9977m  143.3989m  556.6084m 
 -393.47475m    9.7353u  699.9977m  143.5404m  556.4671m 
 -393.37475m    9.7934u  699.9977m  143.6818m  556.3257m 
 -393.27475m    9.8519u  699.9977m  143.8232m  556.1843m 
 -393.17475m    9.9108u  699.9976m  143.9646m  556.0430m 
 -393.07475m    9.9700u  699.9976m  144.1060m  555.9016m 
 -392.97475m   10.0296u  699.9976m  144.2474m  555.7602m 
 -392.87475m   10.0895u  699.9976m  144.3888m  555.6189m 
 -392.77475m   10.1498u  699.9976m  144.5302m  555.4775m 
 -392.67475m   10.2105u  699.9976m  144.6716m  555.3362m 
 -392.57475m   10.2716u  699.9976m  144.8130m  555.1948m 
 -392.47475m   10.3330u  699.9975m  144.9544m  555.0534m 
 -392.37475m   10.3947u  699.9975m  145.0958m  554.9121m 
 -392.27475m   10.4569u  699.9975m  145.2372m  554.7707m 
 -392.17475m   10.5194u  699.9975m  145.3786m  554.6294m 
 -392.07475m   10.5823u  699.9975m  145.5201m  554.4880m 
 -391.97475m   10.6456u  699.9975m  145.6615m  554.3466m 
 -391.87475m   10.7093u  699.9975m  145.8029m  554.2053m 
 -391.77475m   10.7733u  699.9974m  145.9443m  554.0639m 
 -391.67475m   10.8378u  699.9974m  146.0857m  553.9226m 
 -391.57475m   10.9026u  699.9974m  146.2271m  553.7812m 
 -391.47475m   10.9678u  699.9974m  146.3685m  553.6399m 
 -391.37475m   11.0335u  699.9974m  146.5099m  553.4985m 
 -391.27475m   11.0995u  699.9974m  146.6513m  553.3572m 
 -391.17475m   11.1659u  699.9973m  146.7927m  553.2158m 
 -391.07475m   11.2327u  699.9973m  146.9341m  553.0744m 
 -390.97475m   11.3000u  699.9973m  147.0755m  552.9331m 
 -390.87475m   11.3676u  699.9973m  147.2169m  552.7917m 
 -390.77475m   11.4357u  699.9973m  147.3583m  552.6504m 
 -390.67475m   11.5041u  699.9973m  147.4997m  552.5090m 
 -390.57475m   11.5730u  699.9973m  147.6411m  552.3677m 
 -390.47475m   11.6423u  699.9972m  147.7826m  552.2263m 
 -390.37475m   11.7120u  699.9972m  147.9240m  552.0850m 
 -390.27475m   11.7821u  699.9972m  148.0654m  551.9436m 
 -390.17475m   11.8527u  699.9972m  148.2068m  551.8023m 
 -390.07475m   11.9237u  699.9972m  148.3482m  551.6609m 
 -389.97475m   11.9951u  699.9972m  148.4896m  551.5196m 
 -389.87475m   12.0670u  699.9971m  148.6310m  551.3782m 
 -389.77475m   12.1392u  699.9971m  148.7724m  551.2369m 
 -389.67475m   12.2120u  699.9971m  148.9138m  551.0955m 
 -389.57475m   12.2851u  699.9971m  149.0552m  550.9542m 
 -389.47475m   12.3588u  699.9971m  149.1966m  550.8128m 
 -389.37475m   12.4328u  699.9971m  149.3380m  550.6715m 
 -389.27475m   12.5073u  699.9970m  149.4794m  550.5301m 
 -389.17475m   12.5823u  699.9970m  149.6208m  550.3888m 
 -389.07475m   12.6577u  699.9970m  149.7622m  550.2474m 
 -388.97475m   12.7336u  699.9970m  149.9036m  550.1061m 
 -388.87475m   12.8099u  699.9970m  150.0450m  549.9648m 
 -388.77475m   12.8867u  699.9969m  150.1864m  549.8234m 
 -388.67475m   12.9640u  699.9969m  150.3278m  549.6821m 
 -388.57475m   13.0417u  699.9969m  150.4692m  549.5407m 
 -388.47475m   13.1199u  699.9969m  150.6106m  549.3994m 
 -388.37475m   13.1986u  699.9969m  150.7520m  549.2580m 
 -388.27475m   13.2778u  699.9969m  150.8934m  549.1167m 
 -388.17475m   13.3574u  699.9968m  151.0348m  548.9753m 
 -388.07475m   13.4375u  699.9968m  151.1763m  548.8340m 
 -387.97475m   13.5182u  699.9968m  151.3177m  548.6927m 
 -387.87475m   13.5993u  699.9968m  151.4591m  548.5513m 
 -387.77475m   13.6809u  699.9968m  151.6005m  548.4100m 
 -387.67475m   13.7629u  699.9967m  151.7419m  548.2686m 
 -387.57475m   13.8455u  699.9967m  151.8833m  548.1273m 
 -387.47475m   13.9286u  699.9967m  152.0247m  547.9860m 
 -387.37475m   14.0122u  699.9967m  152.1661m  547.8446m 
 -387.27475m   14.0963u  699.9967m  152.3075m  547.7033m 
 -387.17475m   14.1809u  699.9966m  152.4489m  547.5620m 
 -387.07475m   14.2661u  699.9966m  152.5903m  547.4206m 
 -386.97475m   14.3517u  699.9966m  152.7317m  547.2793m 
 -386.87475m   14.4379u  699.9966m  152.8731m  547.1380m 
 -386.77475m   14.5246u  699.9966m  153.0145m  546.9966m 
 -386.67475m   14.6118u  699.9965m  153.1559m  546.8553m 
 -386.57475m   14.6996u  699.9965m  153.2973m  546.7139m 
 -386.47475m   14.7878u  699.9965m  153.4387m  546.5726m 
 -386.37475m   14.8767u  699.9965m  153.5801m  546.4313m 
 -386.27475m   14.9660u  699.9965m  153.7215m  546.2900m 
 -386.17475m   15.0559u  699.9964m  153.8629m  546.1486m 
 -386.07475m   15.1464u  699.9964m  154.0043m  546.0073m 
 -385.97475m   15.2374u  699.9964m  154.1457m  545.8660m 
 -385.87475m   15.3289u  699.9964m  154.2871m  545.7246m 
 -385.77475m   15.4211u  699.9964m  154.4285m  545.5833m 
 -385.67475m   15.5137u  699.9963m  154.5699m  545.4420m 
 -385.57475m   15.6070u  699.9963m  154.7113m  545.3006m 
 -385.47475m   15.7008u  699.9963m  154.8527m  545.1593m 
 -385.37475m   15.7952u  699.9963m  154.9941m  545.0180m 
 -385.27475m   15.8901u  699.9963m  155.1355m  544.8767m 
 -385.17475m   15.9856u  699.9962m  155.2769m  544.7353m 
 -385.07475m   16.0818u  699.9962m  155.4183m  544.5940m 
 -384.97475m   16.1785u  699.9962m  155.5597m  544.4527m 
 -384.87475m   16.2757u  699.9962m  155.7011m  544.3114m 
 -384.77475m   16.3736u  699.9961m  155.8425m  544.1700m 
 -384.67475m   16.4721u  699.9961m  155.9839m  544.0287m 
 -384.57475m   16.5712u  699.9961m  156.1253m  543.8874m 
 -384.47475m   16.6708u  699.9961m  156.2667m  543.7461m 
 -384.37475m   16.7711u  699.9961m  156.4081m  543.6048m 
 -384.27475m   16.8720u  699.9960m  156.5495m  543.4634m 
 -384.17475m   16.9735u  699.9960m  156.6909m  543.3221m 
 -384.07475m   17.0757u  699.9960m  156.8323m  543.1808m 
 -383.97475m   17.1784u  699.9960m  156.9737m  543.0395m 
 -383.87475m   17.2818u  699.9959m  157.1151m  542.8982m 
 -383.77475m   17.3858u  699.9959m  157.2565m  542.7568m 
 -383.67475m   17.4905u  699.9959m  157.3979m  542.6155m 
 -383.57475m   17.5957u  699.9959m  157.5393m  542.4742m 
 -383.47475m   17.7017u  699.9958m  157.6807m  542.3329m 
 -383.37475m   17.8082u  699.9958m  157.8220m  542.1916m 
 -383.27475m   17.9154u  699.9958m  157.9634m  542.0503m 
 -383.17475m   18.0233u  699.9958m  158.1048m  541.9089m 
 -383.07475m   18.1318u  699.9957m  158.2462m  541.7676m 
 -382.97475m   18.2410u  699.9957m  158.3876m  541.6263m 
 -382.87475m   18.3509u  699.9957m  158.5290m  541.4850m 
 -382.77475m   18.4614u  699.9957m  158.6704m  541.3437m 
 -382.67475m   18.5726u  699.9956m  158.8118m  541.2024m 
 -382.57475m   18.6845u  699.9956m  158.9532m  541.0611m 
 -382.47475m   18.7971u  699.9956m  159.0946m  540.9198m 
 -382.37475m   18.9103u  699.9956m  159.2360m  540.7785m 
 -382.27475m   19.0243u  699.9955m  159.3774m  540.6372m 
 -382.17475m   19.1389u  699.9955m  159.5188m  540.4958m 
 -382.07475m   19.2542u  699.9955m  159.6602m  540.3545m 
 -381.97475m   19.3703u  699.9955m  159.8016m  540.2132m 
 -381.87475m   19.4870u  699.9954m  159.9430m  540.0719m 
 -381.77475m   19.6045u  699.9954m  160.0844m  539.9306m 
 -381.67475m   19.7227u  699.9954m  160.2258m  539.7893m 
 -381.57475m   19.8416u  699.9954m  160.3672m  539.6480m 
 -381.47475m   19.9612u  699.9953m  160.5086m  539.5067m 
 -381.37475m   20.0815u  699.9953m  160.6500m  539.3654m 
 -381.27475m   20.2026u  699.9953m  160.7913m  539.2241m 
 -381.17475m   20.3245u  699.9952m  160.9327m  539.0828m 
 -381.07475m   20.4470u  699.9952m  161.0741m  538.9415m 
 -380.97475m   20.5704u  699.9952m  161.2155m  538.8002m 
 -380.87475m   20.6944u  699.9952m  161.3569m  538.6589m 
 -380.77475m   20.8193u  699.9951m  161.4983m  538.5176m 
 -380.67475m   20.9449u  699.9951m  161.6397m  538.3763m 
 -380.57475m   21.0712u  699.9951m  161.7811m  538.2350m 
 -380.47475m   21.1984u  699.9950m  161.9225m  538.0937m 
 -380.37475m   21.3263u  699.9950m  162.0639m  537.9525m 
 -380.27475m   21.4550u  699.9950m  162.2053m  537.8112m 
 -380.17475m   21.5844u  699.9950m  162.3467m  537.6699m 
 -380.07475m   21.7147u  699.9949m  162.4881m  537.5286m 
 -379.97475m   21.8458u  699.9949m  162.6295m  537.3873m 
 -379.87475m   21.9777u  699.9949m  162.7708m  537.2460m 
 -379.77475m   22.1103u  699.9948m  162.9122m  537.1047m 
 -379.67475m   22.2438u  699.9948m  163.0536m  536.9634m 
 -379.57475m   22.3781u  699.9948m  163.1950m  536.8221m 
 -379.47475m   22.5132u  699.9947m  163.3364m  536.6808m 
 -379.37475m   22.6492u  699.9947m  163.4778m  536.5396m 
 -379.27475m   22.7860u  699.9947m  163.6192m  536.3983m 
 -379.17475m   22.9236u  699.9946m  163.7606m  536.2570m 
 -379.07475m   23.0621u  699.9946m  163.9020m  536.1157m 
 -378.97475m   23.2014u  699.9946m  164.0434m  535.9744m 
 -378.87475m   23.3415u  699.9946m  164.1847m  535.8331m 
 -378.77475m   23.4825u  699.9945m  164.3261m  535.6919m 
 -378.67475m   23.6244u  699.9945m  164.4675m  535.5506m 
 -378.57475m   23.7672u  699.9945m  164.6089m  535.4093m 
 -378.47475m   23.9108u  699.9944m  164.7503m  535.2680m 
 -378.37475m   24.0553u  699.9944m  164.8917m  535.1268m 
 -378.27475m   24.2007u  699.9944m  165.0331m  534.9855m 
 -378.17475m   24.3469u  699.9943m  165.1745m  534.8442m 
 -378.07475m   24.4941u  699.9943m  165.3159m  534.7029m 
 -377.97475m   24.6422u  699.9943m  165.4572m  534.5617m 
 -377.87475m   24.7912u  699.9942m  165.5986m  534.4204m 
 -377.77475m   24.9410u  699.9942m  165.7400m  534.2791m 
 -377.67475m   25.0918u  699.9942m  165.8814m  534.1378m 
 -377.57475m   25.2436u  699.9941m  166.0228m  533.9966m 
 -377.47475m   25.3962u  699.9941m  166.1642m  533.8553m 
 -377.37475m   25.5498u  699.9941m  166.3056m  533.7140m 
 -377.27475m   25.7044u  699.9940m  166.4470m  533.5728m 
 -377.17475m   25.8598u  699.9940m  166.5883m  533.4315m 
 -377.07475m   26.0163u  699.9939m  166.7297m  533.2902m 
 -376.97475m   26.1737u  699.9939m  166.8711m  533.1490m 
 -376.87475m   26.3320u  699.9939m  167.0125m  533.0077m 
 -376.77475m   26.4913u  699.9938m  167.1539m  532.8664m 
 -376.67475m   26.6516u  699.9938m  167.2953m  532.7252m 
 -376.57475m   26.8129u  699.9938m  167.4366m  532.5839m 
 -376.47475m   26.9752u  699.9937m  167.5780m  532.4427m 
 -376.37475m   27.1385u  699.9937m  167.7194m  532.3014m 
 -376.27475m   27.3027u  699.9937m  167.8608m  532.1602m 
 -376.17475m   27.4680u  699.9936m  168.0022m  532.0189m 
 -376.07475m   27.6343u  699.9936m  168.1436m  531.8776m 
 -375.97475m   27.8016u  699.9935m  168.2850m  531.7364m 
 -375.87475m   27.9699u  699.9935m  168.4263m  531.5951m 
 -375.77475m   28.1393u  699.9935m  168.5677m  531.4539m 
 -375.67475m   28.3097u  699.9934m  168.7091m  531.3126m 
 -375.57475m   28.4811u  699.9934m  168.8505m  531.1714m 
 -375.47475m   28.6536u  699.9933m  168.9919m  531.0301m 
 -375.37475m   28.8272u  699.9933m  169.1332m  530.8889m 
 -375.27475m   29.0018u  699.9933m  169.2746m  530.7476m 
 -375.17475m   29.1775u  699.9932m  169.4160m  530.6064m 
 -375.07475m   29.3542u  699.9932m  169.5574m  530.4651m 
 -374.97475m   29.5321u  699.9931m  169.6988m  530.3239m 
 -374.87475m   29.7110u  699.9931m  169.8402m  530.1827m 
 -374.77475m   29.8911u  699.9931m  169.9815m  530.0414m 
 -374.67475m   30.0722u  699.9930m  170.1229m  529.9002m 
 -374.57475m   30.2545u  699.9930m  170.2643m  529.7589m 
 -374.47475m   30.4379u  699.9929m  170.4057m  529.6177m 
 -374.37475m   30.6224u  699.9929m  170.5471m  529.4765m 
 -374.27475m   30.8080u  699.9929m  170.6884m  529.3352m 
 -374.17475m   30.9948u  699.9928m  170.8298m  529.1940m 
 -374.07475m   31.1827u  699.9928m  170.9712m  529.0528m 
 -373.97475m   31.3717u  699.9927m  171.1126m  528.9115m 
 -373.87475m   31.5620u  699.9927m  171.2540m  528.7703m 
 -373.77475m   31.7534u  699.9926m  171.3953m  528.6291m 
 -373.67475m   31.9460u  699.9926m  171.5367m  528.4878m 
 -373.57475m   32.1397u  699.9926m  171.6781m  528.3466m 
 -373.47475m   32.3347u  699.9925m  171.8195m  528.2054m 
 -373.37475m   32.5308u  699.9925m  171.9608m  528.0642m 
 -373.27475m   32.7282u  699.9924m  172.1022m  527.9229m 
 -373.17475m   32.9267u  699.9924m  172.2436m  527.7817m 
 -373.07475m   33.1265u  699.9923m  172.3850m  527.6405m 
 -372.97475m   33.3275u  699.9923m  172.5263m  527.4993m 
 -372.87475m   33.5297u  699.9922m  172.6677m  527.3581m 
 -372.77475m   33.7332u  699.9922m  172.8091m  527.2168m 
 -372.67475m   33.9380u  699.9922m  172.9505m  527.0756m 
 -372.57475m   34.1440u  699.9921m  173.0918m  526.9344m 
 -372.47475m   34.3512u  699.9921m  173.2332m  526.7932m 
 -372.37475m   34.5597u  699.9920m  173.3746m  526.6520m 
 -372.27475m   34.7696u  699.9920m  173.5160m  526.5108m 
 -372.17475m   34.9807u  699.9919m  173.6573m  526.3696m 
 -372.07475m   35.1931u  699.9919m  173.7987m  526.2283m 
 -371.97475m   35.4068u  699.9918m  173.9401m  526.0871m 
 -371.87475m   35.6218u  699.9918m  174.0815m  525.9459m 
 -371.77475m   35.8381u  699.9917m  174.2228m  525.8047m 
 -371.67475m   36.0558u  699.9917m  174.3642m  525.6635m 
 -371.57475m   36.2748u  699.9916m  174.5056m  525.5223m 
 -371.47475m   36.4952u  699.9916m  174.6470m  525.3811m 
 -371.37475m   36.7169u  699.9915m  174.7883m  525.2399m 
 -371.27475m   36.9400u  699.9915m  174.9297m  525.0987m 
 -371.17475m   37.1644u  699.9914m  175.0711m  524.9575m 
 -371.07475m   37.3902u  699.9914m  175.2124m  524.8163m 
 -370.97475m   37.6175u  699.9913m  175.3538m  524.6751m 
 -370.87475m   37.8461u  699.9913m  175.4952m  524.5339m 
 -370.77475m   38.0761u  699.9912m  175.6365m  524.3928m 
 -370.67475m   38.3075u  699.9912m  175.7779m  524.2516m 
 -370.57475m   38.5404u  699.9911m  175.9193m  524.1104m 
 -370.47475m   38.7747u  699.9911m  176.0607m  523.9692m 
 -370.37475m   39.0104u  699.9910m  176.2020m  523.8280m 
 -370.27475m   39.2476u  699.9910m  176.3434m  523.6868m 
 -370.17475m   39.4862u  699.9909m  176.4848m  523.5456m 
 -370.07475m   39.7264u  699.9908m  176.6261m  523.4045m 
 -369.97475m   39.9679u  699.9908m  176.7675m  523.2633m 
 -369.87475m   40.2110u  699.9907m  176.9089m  523.1221m 
 -369.77475m   40.4556u  699.9907m  177.0502m  522.9809m 
 -369.67475m   40.7017u  699.9906m  177.1916m  522.8397m 
 -369.57475m   40.9493u  699.9906m  177.3330m  522.6986m 
 -369.47475m   41.1984u  699.9905m  177.4743m  522.5574m 
 -369.37475m   41.4491u  699.9905m  177.6157m  522.4162m 
 -369.27475m   41.7013u  699.9904m  177.7571m  522.2751m 
 -369.17475m   41.9550u  699.9903m  177.8984m  522.1339m 
 -369.07475m   42.2103u  699.9903m  178.0398m  521.9927m 
 -368.97475m   42.4672u  699.9902m  178.1811m  521.8516m 
 -368.87475m   42.7257u  699.9902m  178.3225m  521.7104m 
 -368.77475m   42.9857u  699.9901m  178.4639m  521.5692m 
 -368.67475m   43.2474u  699.9901m  178.6052m  521.4281m 
 -368.57475m   43.5107u  699.9900m  178.7466m  521.2869m 
 -368.47475m   43.7756u  699.9899m  178.8880m  521.1458m 
 -368.37475m   44.0421u  699.9899m  179.0293m  521.0046m 
 -368.27475m   44.3103u  699.9898m  179.1707m  520.8635m 
 -368.17475m   44.5801u  699.9898m  179.3120m  520.7223m 
 -368.07475m   44.8516u  699.9897m  179.4534m  520.5812m 
 -367.97475m   45.1247u  699.9896m  179.5948m  520.4400m 
 -367.87475m   45.3996u  699.9896m  179.7361m  520.2989m 
 -367.77475m   45.6761u  699.9895m  179.8775m  520.1577m 
 -367.67475m   45.9544u  699.9895m  180.0188m  520.0166m 
 -367.57475m   46.2343u  699.9894m  180.1602m  519.8754m 
 -367.47475m   46.5160u  699.9893m  180.3016m  519.7343m 
 -367.37475m   46.7994u  699.9893m  180.4429m  519.5931m 
 -367.27475m   47.0846u  699.9892m  180.5843m  519.4520m 
 -367.17475m   47.3715u  699.9891m  180.7256m  519.3109m 
 -367.07475m   47.6602u  699.9891m  180.8670m  519.1697m 
 -366.97475m   47.9507u  699.9890m  181.0083m  519.0286m 
 -366.87475m   48.2430u  699.9889m  181.1497m  518.8875m 
 -366.77475m   48.5370u  699.9889m  181.2911m  518.7464m 
 -366.67475m   48.8329u  699.9888m  181.4324m  518.6052m 
 -366.57475m   49.1306u  699.9887m  181.5738m  518.4641m 
 -366.47475m   49.4302u  699.9887m  181.7151m  518.3230m 
 -366.37475m   49.7316u  699.9886m  181.8565m  518.1819m 
 -366.27475m   50.0348u  699.9885m  181.9978m  518.0407m 
 -366.17475m   50.3400u  699.9885m  182.1392m  517.8996m 
 -366.07475m   50.6470u  699.9884m  182.2805m  517.7585m 
 -365.97475m   50.9559u  699.9883m  182.4219m  517.6174m 
 -365.87475m   51.2667u  699.9883m  182.5632m  517.4763m 
 -365.77475m   51.5794u  699.9882m  182.7046m  517.3352m 
 -365.67475m   51.8941u  699.9881m  182.8459m  517.1941m 
 -365.57475m   52.2107u  699.9881m  182.9873m  517.0530m 
 -365.47475m   52.5292u  699.9880m  183.1286m  516.9119m 
 -365.37475m   52.8498u  699.9879m  183.2700m  516.7708m 
 -365.27475m   53.1723u  699.9878m  183.4113m  516.6297m 
 -365.17475m   53.4967u  699.9878m  183.5527m  516.4886m 
 -365.07475m   53.8232u  699.9877m  183.6940m  516.3475m 
 -364.97475m   54.1517u  699.9876m  183.8354m  516.2064m 
 -364.87475m   54.4823u  699.9875m  183.9767m  516.0653m 
 -364.77475m   54.8149u  699.9875m  184.1181m  515.9242m 
 -364.67475m   55.1495u  699.9874m  184.2594m  515.7831m 
 -364.57475m   55.4862u  699.9873m  184.4008m  515.6420m 
 -364.47475m   55.8250u  699.9872m  184.5421m  515.5010m 
 -364.37475m   56.1659u  699.9872m  184.6835m  515.3599m 
 -364.27475m   56.5088u  699.9871m  184.8248m  515.2188m 
 -364.17475m   56.8539u  699.9870m  184.9662m  515.0777m 
 -364.07475m   57.2012u  699.9869m  185.1075m  514.9366m 
 -363.97475m   57.5506u  699.9869m  185.2488m  514.7956m 
 -363.87475m   57.9021u  699.9868m  185.3902m  514.6545m 
 -363.77475m   58.2558u  699.9867m  185.5315m  514.5134m 
 -363.67475m   58.6117u  699.9866m  185.6729m  514.3724m 
 -363.57475m   58.9698u  699.9865m  185.8142m  514.2313m 
 -363.47475m   59.3301u  699.9865m  185.9555m  514.0902m 
 -363.37475m   59.6926u  699.9864m  186.0969m  513.9492m 
 -363.27475m   60.0574u  699.9863m  186.2382m  513.8081m 
 -363.17475m   60.4244u  699.9862m  186.3796m  513.6671m 
 -363.07475m   60.7937u  699.9861m  186.5209m  513.5260m 
 -362.97475m   61.1653u  699.9861m  186.6622m  513.3850m 
 -362.87475m   61.5392u  699.9860m  186.8036m  513.2439m 
 -362.77475m   61.9154u  699.9859m  186.9449m  513.1029m 
 -362.67475m   62.2939u  699.9858m  187.0863m  512.9618m 
 -362.57475m   62.6748u  699.9857m  187.2276m  512.8208m 
 -362.47475m   63.0580u  699.9856m  187.3689m  512.6798m 
 -362.37475m   63.4436u  699.9856m  187.5103m  512.5387m 
 -362.27475m   63.8315u  699.9855m  187.6516m  512.3977m 
 -362.17475m   64.2219u  699.9854m  187.7929m  512.2567m 
 -362.07475m   64.6147u  699.9853m  187.9343m  512.1156m 
 -361.97475m   65.0099u  699.9852m  188.0756m  511.9746m 
 -361.87475m   65.4075u  699.9851m  188.2169m  511.8336m 
 -361.77475m   65.8077u  699.9850m  188.3583m  511.6926m 
 -361.67475m   66.2103u  699.9849m  188.4996m  511.5515m 
 -361.57475m   66.6153u  699.9848m  188.6409m  511.4105m 
 -361.47475m   67.0229u  699.9848m  188.7823m  511.2695m 
 -361.37475m   67.4330u  699.9847m  188.9236m  511.1285m 
 -361.27475m   67.8457u  699.9846m  189.0649m  510.9875m 
 -361.17475m   68.2609u  699.9845m  189.2063m  510.8465m 
 -361.07475m   68.6787u  699.9844m  189.3476m  510.7055m 
 -360.97475m   69.0990u  699.9843m  189.4889m  510.5645m 
 -360.87475m   69.5220u  699.9842m  189.6302m  510.4235m 
 -360.77475m   69.9476u  699.9841m  189.7716m  510.2825m 
 -360.67475m   70.3758u  699.9840m  189.9129m  510.1415m 
 -360.57475m   70.8066u  699.9839m  190.0542m  510.0005m 
 -360.47475m   71.2402u  699.9838m  190.1955m  509.8595m 
 -360.37475m   71.6764u  699.9837m  190.3369m  509.7185m 
 -360.27475m   72.1153u  699.9836m  190.4782m  509.5775m 
 -360.17475m   72.5569u  699.9835m  190.6195m  509.4366m 
 -360.07475m   73.0013u  699.9834m  190.7608m  509.2956m 
[...]
  469.52525m  700.0000m  123.4392n  664.0091m   35.9910m 
  469.62525m  700.0000m  122.7774n  664.1505m   35.8496m 
  469.72525m  700.0000m  122.1193n  664.2919m   35.7081m 
  469.82525m  700.0000m  121.4650n  664.4334m   35.5667m 
  469.92525m  700.0000m  120.8145n  664.5748m   35.4253m 
  470.02525m  700.0000m  120.1677n  664.7162m   35.2839m 
  470.12525m  700.0000m  119.5246n  664.8576m   35.1425m 
  470.22525m  700.0000m  118.8852n  664.9990m   35.0010m 
  470.32525m  700.0000m  118.2494n  665.1405m   34.8596m 
  470.42525m  700.0000m  117.6173n  665.2819m   34.7182m 
  470.52525m  700.0000m  116.9888n  665.4233m   34.5768m 
  470.62525m  700.0000m  116.3640n  665.5647m   34.4354m 
  470.72525m  700.0000m  115.7427n  665.7062m   34.2939m 
  470.82525m  700.0000m  115.1249n  665.8476m   34.1525m 
  470.92525m  700.0000m  114.5107n  665.9890m   34.0111m 
  471.02525m  700.0000m  113.9001n  666.1304m   33.8697m 
  471.12525m  700.0000m  113.2929n  666.2718m   33.7282m 
  471.22525m  700.0000m  112.6892n  666.4133m   33.5868m 
  471.32525m  700.0000m  112.0890n  666.5547m   33.4454m 
  471.42525m  700.0000m  111.4922n  666.6961m   33.3040m 
  471.52525m  700.0000m  110.8988n  666.8375m   33.1626m 
  471.62525m  700.0000m  110.3088n  666.9789m   33.0211m 
  471.72525m  700.0000m  109.7222n  667.1204m   32.8797m 
  471.82525m  700.0000m  109.1390n  667.2618m   32.7383m 
  471.92525m  700.0000m  108.5591n  667.4032m   32.5969m 
  472.02525m  700.0000m  107.9825n  667.5446m   32.4555m 
  472.12525m  700.0000m  107.4092n  667.6860m   32.3140m 
  472.22525m  700.0000m  106.8392n  667.8275m   32.1726m 
  472.32525m  700.0000m  106.2725n  667.9689m   32.0312m 
  472.42525m  700.0000m  105.7090n  668.1103m   31.8898m 
  472.52525m  700.0000m  105.1488n  668.2517m   31.7484m 
  472.62525m  700.0000m  104.5917n  668.3931m   31.6069m 
  472.72525m  700.0000m  104.0379n  668.5346m   31.4655m 
  472.82525m  700.0000m  103.4872n  668.6760m   31.3241m 
  472.92525m  700.0000m  102.9397n  668.8174m   31.1827m 
  473.02525m  700.0000m  102.3953n  668.9588m   31.0412m 
  473.12525m  700.0000m  101.8540n  669.1003m   30.8998m 
  473.22525m  700.0000m  101.3158n  669.2417m   30.7584m 
  473.32525m  700.0000m  100.7807n  669.3831m   30.6170m 
  473.42525m  700.0000m  100.2487n  669.5245m   30.4756m 
  473.52525m  700.0000m   99.7197n  669.6659m   30.3341m 
  473.62525m  700.0000m   99.1937n  669.8074m   30.1927m 
  473.72525m  700.0000m   98.6708n  669.9488m   30.0513m 
  473.82525m  700.0000m   98.1508n  670.0902m   29.9099m 
  473.92525m  700.0000m   97.6338n  670.2316m   29.7685m 
  474.02525m  700.0000m   97.1198n  670.3730m   29.6270m 
  474.12525m  700.0000m   96.6087n  670.5145m   29.4856m 
  474.22525m  700.0000m   96.1006n  670.6559m   29.3442m 
  474.32525m  700.0000m   95.5953n  670.7973m   29.2028m 
  474.42525m  700.0000m   95.0930n  670.9387m   29.0613m 
  474.52525m  700.0000m   94.5935n  671.0801m   28.9199m 
  474.62525m  700.0000m   94.0969n  671.2216m   28.7785m 
  474.72525m  700.0000m   93.6031n  671.3630m   28.6371m 
  474.82525m  700.0000m   93.1121n  671.5044m   28.4957m 
  474.92525m  700.0000m   92.6240n  671.6458m   28.3542m 
  475.02525m  700.0000m   92.1386n  671.7872m   28.2128m 
  475.12525m  700.0000m   91.6561n  671.9287m   28.0714m 
  475.22525m  700.0000m   91.1763n  672.0701m   27.9300m 
  475.32525m  700.0000m   90.6992n  672.2115m   27.7886m 
  475.42525m  700.0000m   90.2248n  672.3529m   27.6471m 
  475.52525m  700.0000m   89.7532n  672.4944m   27.5057m 
  475.62525m  700.0000m   89.2843n  672.6358m   27.3643m 
  475.72525m  700.0000m   88.8180n  672.7772m   27.2229m 
  475.82525m  700.0000m   88.3544n  672.9186m   27.0814m 
  475.92525m  700.0000m   87.8935n  673.0600m   26.9400m 
  476.02525m  700.0000m   87.4352n  673.2015m   26.7986m 
  476.12525m  700.0000m   86.9795n  673.3429m   26.6572m 
  476.22525m  700.0000m   86.5265n  673.4843m   26.5158m 
  476.32525m  700.0000m   86.0760n  673.6257m   26.3743m 
  476.42525m  700.0000m   85.6281n  673.7671m   26.2329m 
  476.52525m  700.0000m   85.1828n  673.9086m   26.0915m 
  476.62525m  700.0000m   84.7400n  674.0500m   25.9501m 
  476.72525m  700.0000m   84.2997n  674.1914m   25.8087m 
  476.82525m  700.0000m   83.8620n  674.3328m   25.6672m 
  476.92525m  700.0000m   83.4267n  674.4742m   25.5258m 
  477.02525m  700.0000m   82.9940n  674.6157m   25.3844m 
  477.12525m  700.0000m   82.5637n  674.7571m   25.2430m 
  477.22525m  700.0000m   82.1359n  674.8985m   25.1016m 
  477.32525m  700.0000m   81.7105n  675.0399m   24.9601m 
  477.42525m  700.0000m   81.2875n  675.1813m   24.8187m 
  477.52525m  700.0000m   80.8670n  675.3228m   24.6773m 
  477.62525m  700.0000m   80.4489n  675.4642m   24.5359m 
  477.72525m  700.0000m   80.0331n  675.6056m   24.3944m 
  477.82525m  700.0000m   79.6198n  675.7470m   24.2530m 
  477.92525m  700.0000m   79.2088n  675.8885m   24.1116m 
  478.02525m  700.0000m   78.8001n  676.0299m   23.9702m 
  478.12525m  700.0000m   78.3938n  676.1713m   23.8288m 
  478.22525m  700.0000m   77.9898n  676.3127m   23.6873m 
  478.32525m  700.0000m   77.5882n  676.4541m   23.5459m 
  478.42525m  700.0000m   77.1888n  676.5956m   23.4045m 
  478.52525m  700.0000m   76.7917n  676.7370m   23.2631m 
  478.62525m  700.0000m   76.3968n  676.8784m   23.1217m 
  478.72525m  700.0000m   76.0043n  677.0198m   22.9802m 
  478.82525m  700.0000m   75.6139n  677.1612m   22.8388m 
  478.92525m  700.0000m   75.2258n  677.3027m   22.6974m 
  479.02525m  700.0000m   74.8399n  677.4441m   22.5560m 
  479.12525m  700.0000m   74.4563n  677.5855m   22.4145m 
  479.22525m  700.0000m   74.0748n  677.7269m   22.2731m 
  479.32525m  700.0000m   73.6954n  677.8683m   22.1317m 
  479.42525m  700.0000m   73.3183n  678.0098m   21.9903m 
  479.52525m  700.0000m   72.9433n  678.1512m   21.8489m 
  479.62525m  700.0000m   72.5705n  678.2926m   21.7074m 
  479.72525m  700.0000m   72.1997n  678.4340m   21.5660m 
  479.82525m  700.0000m   71.8311n  678.5755m   21.4246m 
  479.92525m  700.0000m   71.4646n  678.7169m   21.2832m 
  480.02525m  700.0000m   71.1002n  678.8583m   21.1418m 
  480.12525m  700.0000m   70.7379n  678.9997m   21.0003m 
  480.22525m  700.0000m   70.3776n  679.1411m   20.8589m 
  480.32525m  700.0000m   70.0194n  679.2826m   20.7175m 
  480.42525m  700.0000m   69.6633n  679.4240m   20.5761m 
  480.52525m  700.0000m   69.3092n  679.5654m   20.4347m 
  480.62525m  700.0000m   68.9571n  679.7068m   20.2932m 
  480.72525m  700.0000m   68.6070n  679.8482m   20.1518m 
  480.82525m  700.0000m   68.2589n  679.9897m   20.0104m 
  480.92525m  700.0000m   67.9128n  680.1311m   19.8690m 
  481.02525m  700.0000m   67.5687n  680.2725m   19.7275m 
  481.12525m  700.0000m   67.2265n  680.4139m   19.5861m 
  481.22525m  700.0000m   66.8863n  680.5553m   19.4447m 
  481.32525m  700.0000m   66.5480n  680.6968m   19.3033m 
  481.42525m  700.0000m   66.2117n  680.8382m   19.1619m 
  481.52525m  700.0000m   65.8773n  680.9796m   19.0204m 
  481.62525m  700.0000m   65.5448n  681.1210m   18.8790m 
  481.72525m  700.0000m   65.2142n  681.2625m   18.7376m 
  481.82525m  700.0000m   64.8854n  681.4039m   18.5962m 
  481.92525m  700.0000m   64.5586n  681.5453m   18.4548m 
  482.02525m  700.0000m   64.2336n  681.6867m   18.3133m 
  482.12525m  700.0000m   63.9105n  681.8281m   18.1719m 
  482.22525m  700.0000m   63.5892n  681.9696m   18.0305m 
  482.32525m  700.0000m   63.2698n  682.1110m   17.8891m 
  482.42525m  700.0000m   62.9521n  682.2524m   17.7476m 
  482.52525m  700.0000m   62.6363n  682.3938m   17.6062m 
  482.62525m  700.0000m   62.3223n  682.5352m   17.4648m 
  482.72525m  700.0000m   62.0101n  682.6767m   17.3234m 
  482.82525m  700.0000m   61.6997n  682.8181m   17.1820m 
  482.92525m  700.0000m   61.3910n  682.9595m   17.0405m 
  483.02525m  700.0000m   61.0841n  683.1009m   16.8991m 
  483.12525m  700.0000m   60.7789n  683.2423m   16.7577m 
  483.22525m  700.0000m   60.4755n  683.3838m   16.6163m 
  483.32525m  700.0000m   60.1738n  683.5252m   16.4749m 
  483.42525m  700.0000m   59.8739n  683.6666m   16.3334m 
  483.52525m  700.0000m   59.5756n  683.8080m   16.1920m 
  483.62525m  700.0000m   59.2791n  683.9495m   16.0506m 
  483.72525m  700.0000m   58.9842n  684.0909m   15.9092m 
  483.82525m  700.0000m   58.6910n  684.2323m   15.7677m 
  483.92525m  700.0000m   58.3995n  684.3737m   15.6263m 
  484.02525m  700.0000m   58.1097n  684.5151m   15.4849m 
  484.12525m  700.0000m   57.8215n  684.6566m   15.3435m 
  484.22525m  700.0000m   57.5350n  684.7980m   15.2021m 
  484.32525m  700.0000m   57.2500n  684.9394m   15.0606m 
  484.42525m  700.0000m   56.9668n  685.0808m   14.9192m 
  484.52525m  700.0000m   56.6851n  685.2222m   14.7778m 
  484.62525m  700.0000m   56.4050n  685.3637m   14.6364m 
  484.72525m  700.0000m   56.1266n  685.5051m   14.4950m 
  484.82525m  700.0000m   55.8497n  685.6465m   14.3535m 
  484.92525m  700.0000m   55.5744n  685.7879m   14.2121m 
  485.02525m  700.0000m   55.3006n  685.9293m   14.0707m 
  485.12525m  700.0000m   55.0285n  686.0708m   13.9293m 
  485.22525m  700.0000m   54.7579n  686.2122m   13.7879m 
  485.32525m  700.0000m   54.4888n  686.3536m   13.6464m 
  485.42525m  700.0000m   54.2212n  686.4950m   13.5050m 
  485.52525m  700.0000m   53.9552n  686.6365m   13.3636m 
  485.62525m  700.0000m   53.6907n  686.7779m   13.2222m 
  485.72525m  700.0000m   53.4277n  686.9193m   13.0807m 
  485.82525m  700.0000m   53.1662n  687.0607m   12.9393m 
  485.92525m  700.0000m   52.9062n  687.2021m   12.7979m 
  486.02525m  700.0000m   52.6477n  687.3436m   12.6565m 
  486.12525m  700.0000m   52.3907n  687.4850m   12.5151m 
  486.22525m  700.0000m   52.1351n  687.6264m   12.3736m 
  486.32525m  700.0000m   51.8810n  687.7678m   12.2322m 
  486.42525m  700.0000m   51.6283n  687.9092m   12.0908m 
  486.52525m  700.0000m   51.3770n  688.0507m   11.9494m 
  486.62525m  700.0000m   51.1272n  688.1921m   11.8080m 
  486.72525m  700.0000m   50.8789n  688.3335m   11.6665m 
  486.82525m  700.0000m   50.6319n  688.4749m   11.5251m 
  486.92525m  700.0000m   50.3863n  688.6163m   11.3837m 
  487.02525m  700.0000m   50.1422n  688.7578m   11.2423m 
  487.12525m  700.0000m   49.8994n  688.8992m   11.1008m 
  487.22525m  700.0000m   49.6580n  689.0406m   10.9594m 
  487.32525m  700.0000m   49.4180n  689.1820m   10.8180m 
  487.42525m  700.0000m   49.1794n  689.3235m   10.6766m 
  487.52525m  700.0000m   48.9421n  689.4649m   10.5352m 
  487.62525m  700.0000m   48.7062n  689.6063m   10.3937m 
  487.72525m  700.0000m   48.4716n  689.7477m   10.2523m 
  487.82525m  700.0000m   48.2383n  689.8891m   10.1109m 
  487.92525m  700.0000m   48.0064n  690.0306m    9.9695m 
  488.02525m  700.0000m   47.7758n  690.1720m    9.8281m 
  488.12525m  700.0000m   47.5465n  690.3134m    9.6866m 
  488.22525m  700.0000m   47.3186n  690.4548m    9.5452m 
  488.32525m  700.0000m   47.0919n  690.5962m    9.4038m 
  488.42525m  700.0000m   46.8665n  690.7377m    9.2624m 
  488.52525m  700.0000m   46.6424n  690.8791m    9.1209m 
  488.62525m  700.0000m   46.4196n  691.0205m    8.9795m 
  488.72525m  700.0000m   46.1980n  691.1619m    8.8381m 
  488.82525m  700.0000m   45.9777n  691.3033m    8.6967m 
  488.92525m  700.0000m   45.7587n  691.4448m    8.5553m 
  489.02525m  700.0000m   45.5409n  691.5862m    8.4138m 
  489.12525m  700.0000m   45.3243n  691.7276m    8.2724m 
  489.22525m  700.0000m   45.1090n  691.8690m    8.1310m 
  489.32525m  700.0000m   44.8949n  692.0105m    7.9896m 
  489.42525m  700.0000m   44.6821n  692.1519m    7.8482m 
  489.52525m  700.0000m   44.4704n  692.2933m    7.7067m 
  489.62525m  700.0000m   44.2599n  692.4347m    7.5653m 
  489.72525m  700.0000m   44.0507n  692.5761m    7.4239m 
  489.82525m  700.0000m   43.8426n  692.7176m    7.2825m 
  489.92525m  700.0000m   43.6357n  692.8590m    7.1411m 
  490.02525m  700.0000m   43.4300n  693.0004m    6.9996m 
  490.12525m  700.0000m   43.2255n  693.1418m    6.8582m 
  490.22525m  700.0000m   43.0221n  693.2832m    6.7168m 
  490.32525m  700.0000m   42.8199n  693.4247m    6.5754m 
  490.42525m  700.0000m   42.6189n  693.5661m    6.4339m 
  490.52525m  700.0000m   42.4190n  693.7075m    6.2925m 
  490.62525m  700.0000m   42.2202n  693.8489m    6.1511m 
  490.72525m  700.0000m   42.0225n  693.9904m    6.0097m 
  490.82525m  700.0000m   41.8260n  694.1318m    5.8683m 
  490.92525m  700.0000m   41.6306n  694.2732m    5.7268m 
  491.02525m  700.0000m   41.4363n  694.4146m    5.5854m 
  491.12525m  700.0000m   41.2432n  694.5560m    5.4440m 
  491.22525m  700.0000m   41.0511n  694.6975m    5.3026m 
  491.32525m  700.0000m   40.8601n  694.8389m    5.1612m 
  491.42525m  700.0000m   40.6702n  694.9803m    5.0197m 
  491.52525m  700.0000m   40.4814n  695.1217m    4.8783m 
  491.62525m  700.0000m   40.2936n  695.2631m    4.7369m 
  491.72525m  700.0000m   40.1070n  695.4046m    4.5955m 
  491.82525m  700.0000m   39.9214n  695.5460m    4.4540m 
  491.92525m  700.0000m   39.7368n  695.6874m    4.3126m 
  492.02525m  700.0000m   39.5533n  695.8288m    4.1712m 
  492.12525m  700.0000m   39.3709n  695.9702m    4.0298m 
  492.22525m  700.0000m   39.1894n  696.1117m    3.8884m 
  492.32525m  700.0000m   39.0090n  696.2531m    3.7469m 
  492.42525m  700.0000m   38.8297n  696.3945m    3.6055m 
  492.52525m  700.0000m   38.6513n  696.5359m    3.4641m 
  492.62525m  700.0000m   38.4740n  696.6774m    3.3227m 
  492.72525m  700.0000m   38.2977n  696.8188m    3.1813m 
  492.82525m  700.0000m   38.1224n  696.9602m    3.0398m 
  492.92525m  700.0000m   37.9481n  697.1016m    2.8984m 
  493.02525m  700.0000m   37.7748n  697.2430m    2.7570m 
  493.12525m  700.0000m   37.6024n  697.3845m    2.6156m 
  493.22525m  700.0000m   37.4311n  697.5259m    2.4741m 
  493.32525m  700.0000m   37.2607n  697.6673m    2.3327m 
  493.42525m  700.0000m   37.0913n  697.8087m    2.1913m 
  493.52525m  700.0000m   36.9228n  697.9501m    2.0499m 
  493.62525m  700.0000m   36.7553n  698.0916m    1.9085m 
  493.72525m  700.0000m   36.5888n  698.2330m    1.7670m 
  493.82525m  700.0000m   36.4232n  698.3744m    1.6256m 
  493.92525m  700.0000m   36.2586n  698.5158m    1.4842m 
  494.02525m  700.0000m   36.0949n  698.6572m    1.3428m 
  494.12525m  700.0000m   35.9321n  698.7987m    1.2014m 
  494.22525m  700.0000m   35.7703n  698.9401m    1.0599m 
  494.32525m  700.0000m   35.6093n  699.0815m  918.5128u 
  494.42525m  700.0000m   35.4493n  699.2229m  777.0915u 
  494.52525m  700.0000m   35.2902n  699.3644m  635.6702u 
  494.62525m  700.0000m   35.1320n  699.5058m  494.2488u 
  494.72525m  700.0000m   34.9747n  699.6472m  352.8275u 
  494.82525m  700.0000m   34.8183n  699.7886m  211.4062u 
  494.92525m  700.0000m   34.6628n  699.9300m   69.9849u 
y
 max_1= 431.3652m    at=-253.3747m
             from=-494.9747m    to= 494.9253m
 max_2= 431.3652m    at= 253.4253m
             from=-494.9747m    to= 494.9253m
 snm= 305.0212m
1****** HSPICE -- Q-2020.03-SP2-2 linux64 (Nov  1 2020) ******                  
 ******  
 .title noise margin in hold operation

 ****** operating point information tnom=  25.000 temp=  25.000 ******
 ****** operating point status is all       simulation time is     0.     
    node    =voltage      node    =voltage      node    =voltage

 +0:bl      = 700.0000m 0:blb     = 700.0000m 0:gl      = 366.9108m
 +0:gr      = 366.9108m 0:q       = 366.9108m 0:qb      = 366.9108m
 +0:u       =   0.      0:v1      = 518.8902m 0:v2      = 518.8902m
 +0:vdd     = 700.0000m 0:wl      =   0.      0:x       = 662.5518m


 **** voltage sources

 subckt                                   
 element  0:vu       0:vvdd     0:vwl     
  volts      0.       700.0000m    0.     
  current    0.        -1.3583u  323.7222f
  power      0.       950.8115n    0.     

     total voltage source power dissipation=  950.8115n       watts



 **** voltage-controlled voltage sources


 subckt                                              
 element  0:eli      0:ev1      0:eri      0:ev2     
  volts    366.9108m  518.8902m  366.9108m  518.8902m
  current   13.7630f    0.        13.7630f    0.     





 **** mosfets


 subckt                                                                    
 element  0:mpr      0:mnr      0:mpl      0:mnl      0:mnpr     0:mnpl    
 model    0:pmos_sra 0:nmos_sra 0:pmos_sra 0:nmos_sra 0:nmos_sra 0:nmos_sra
 region   Subth      Subth      Subth      Subth      Cutoff     Cutoff    
  id      -679.1510n  679.1510n -679.1510n  679.1510n  891.7781a  891.7781a
  ibs        0.         0.         0.         0.         0.         0.     
  ibd        0.         0.         0.         0.         0.         0.     
  vgs     -333.0892m  366.9108m -333.0892m  366.9108m -366.9108m -366.9108m
  vds     -333.0892m  366.9108m -333.0892m  366.9108m  333.0892m  333.0892m
  vbs      -37.4482m  662.5518m  -37.4482m  662.5518m  295.6410m  295.6410m
  vth     -342.4901m  410.8062m -342.4901m  410.8062m  411.0253m  411.0253m
  vdsat    -93.4800m   79.2347m  -93.4800m   79.2347m   71.0368m   71.0368m
  vod        9.4009m  -43.8954m    9.4009m  -43.8954m -777.9361m -777.9361m
  beta       2.5635m    3.3880m    2.5635m    3.3880m    3.3880m    3.3880m
  gam eff    0.         0.         0.         0.         0.         0.     
  gm        17.4807u   20.6693u   17.4807u   20.6693u  9.481e-21  9.481e-21
  gds      460.1083n  342.8849n  460.1083n  342.8849n  215.1889a  215.1889a
  gmb        6.7209p   16.4204p    6.7209p   16.4204p  1.261e-20  1.261e-20
  cdtot     10.8023a   10.8707a   10.8023a   10.8707a   10.8750a   10.8750a
  cgtot     34.8139a   28.6576a   34.8139a   28.6576a   21.7500a   21.7500a
  cstot     19.4164a   15.5415a   19.4164a   15.5415a   10.8750a   10.8750a
  cbtot      0.         0.         0.         0.         0.         0.     
  cgs       24.1711a   17.8149a   24.1711a   17.8149a   10.8750a   10.8750a
  cgd       10.6427a   10.8427a   10.6427a   10.8427a   10.8750a   10.8750a




          ***** job concluded
 ******  
 .title noise margin in hold operation

 ****** job statistics summary tnom=  25.000 temp=  25.000 ******
  
 ******  Machine Information  ******
 CPU:
 model name	: AMD EPYC 7713 64-Core Processor
 cpu MHz	: 2000.000
  
 OS:
 Linux version 3.10.0-1160.88.1.el7.x86_64 (mockbuild@kbuilder.bsys.centos.org) (gcc version 4.8.5 20150623 (Red Hat 4.8.5-44) (GCC) ) #1 SMP Tue Mar 7 15:41:52 UTC 2023


  ******  HSPICE Threads Information  ******

  Command Line Threads Count :     1
  Available CPU Count        :   256
  Actual Threads Count       :     1


  ******  Circuit Statistics  ******
  # nodes       =      13 # elements   =      15
  # resistors   =       0 # capacitors =       2 # inductors   =       0
  # mutual_inds =       0 # vccs       =       0 # vcvs        =       4
  # cccs        =       0 # ccvs       =       0 # volt_srcs   =       3
  # curr_srcs   =       0 # diodes     =       0 # bjts        =       0
  # jfets       =       0 # mosfets    =       6 # U elements  =       0
  # T elements  =       0 # W elements =       0 # B elements  =       0
  # S elements  =       0 # P elements =       0 # va device   =       0
  # vector_srcs =       0 # N elements =       0


  ******  Runtime Statistics (seconds)  ******

  analysis           time    # points   tot. iter  conv.iter
  op point           0.01           1          10
  dc sweep           0.84        9900       29712
  readin             0.02
  errchk             0.01
  setup              0.00
  output             0.00


           peak memory used        406.02 megabytes
           total cpu time            0.94 seconds
           total elapsed time        1.11 seconds
           job started at     13:19:30 03/23/2025
           job ended   at     13:19:32 03/23/2025
           job total runtime         1.11 seconds


 lic: Release hspice token(s) 
 lic: total license checkout elapse time:        0.16(s)
