 ****** HSPICE -- Q-2020.03-SP2-2 linux64 (Nov  1 2020) ******                  
  Copyright (c) 1986 - 2025 by Synopsys, Inc. All Rights Reserved.              
  This software and the associated documentation are proprietary
  to Synopsys, Inc. This software may only be used in accordance
  with the terms and conditions of a written license agreement with
  Synopsys, Inc. All other use, reproduction, or distribution of
  this software is strictly prohibited.
  Input File: SRAM_SNM_TT.sp                                                    
  Command line options: /RAID2/cad/synopsys/hspice/2020.03-sp2-2/hspice/linux64/hspice -i SRAM_SNM_TT.sp -o SRAM_SNM_TT.lis
  Start time: Thu Mar 20 19:36:50 2025
 lic:  
 lic: FLEXlm: SDK_12.6 
 lic: USER:   es25MCS042           HOSTNAME: ee28 
 lic: HOSTID: "d85ed3efc19a"       PID:      140298 
 lic: Using FLEXlm license file: 
 lic: 26585@lshc 
 lic: Checkout 1 hspice 
 lic: License/Maintenance for hspice will expire on 14-may-2025/2024.09 
 lic: 243(in_use)/1100(total) FLOATING license(s) on SERVER 26585@lshc 
 lic:   
  
      
             
 Warning:'Floating bulk' occurs 1 times
 Summary of floating bulk:
 -----------------------
 |Node      |Device    |
 |----------+----------|
 |x         |mpr       |
 -----------------------
              
 *****************************************************************
 ******  option summary
 ******
 runlvl  = 3         bypass  = 2.0000    
 ******
 .title noise margin in hold operation

 ****** dc transfer curves tnom=  25.000 temp=  25.000 ******
x

 volt         voltage    voltage    voltage    voltage   
             q          qb         v1         v2         
 -494.97475m   31.6225n  700.0000m  494.9747m  494.9748m 
 -494.87475m   31.7657n  700.0000m  495.0747m  494.8748m 
 -494.77475m   31.9096n  700.0000m  495.1747m  494.7748m 
 -494.67475m   32.0544n  700.0000m  495.2747m  494.6748m 
 -494.57475m   32.2000n  700.0000m  495.3747m  494.5748m 
 -494.47475m   32.3465n  700.0000m  495.4747m  494.4748m 
 -494.37475m   32.4938n  700.0000m  495.5747m  494.3748m 
 -494.27475m   32.6420n  700.0000m  495.6747m  494.2748m 
 -494.17475m   32.7910n  700.0000m  495.7747m  494.1748m 
 -494.07475m   32.9409n  700.0000m  495.8747m  494.0748m 
 -493.97475m   33.0916n  700.0000m  495.9747m  493.9748m 
 -493.87475m   33.2432n  700.0000m  496.0747m  493.8748m 
 -493.77475m   33.3957n  700.0000m  496.1747m  493.7748m 
 -493.67475m   33.5490n  700.0000m  496.2747m  493.6748m 
 -493.57475m   33.7033n  700.0000m  496.3747m  493.5748m 
 -493.47475m   33.8584n  700.0000m  496.4747m  493.4748m 
 -493.37475m   34.0144n  700.0000m  496.5747m  493.3748m 
 -493.27475m   34.1713n  700.0000m  496.6747m  493.2748m 
 -493.17475m   34.3291n  700.0000m  496.7747m  493.1748m 
 -493.07475m   34.4879n  700.0000m  496.8747m  493.0748m 
 -492.97475m   34.6475n  700.0000m  496.9747m  492.9748m 
 -492.87475m   34.8081n  700.0000m  497.0747m  492.8748m 
 -492.77475m   34.9695n  700.0000m  497.1747m  492.7748m 
 -492.67475m   35.1320n  700.0000m  497.2747m  492.6748m 
 -492.57475m   35.2953n  700.0000m  497.3747m  492.5748m 
 -492.47475m   35.4596n  700.0000m  497.4747m  492.4748m 
 -492.37475m   35.6249n  700.0000m  497.5747m  492.3748m 
 -492.27475m   35.7910n  700.0000m  497.6747m  492.2748m 
 -492.17475m   35.9582n  700.0000m  497.7747m  492.1748m 
 -492.07475m   36.1263n  700.0000m  497.8747m  492.0748m 
 -491.97475m   36.2954n  700.0000m  497.9747m  491.9748m 
 -491.87475m   36.4654n  700.0000m  498.0747m  491.8748m 
 -491.77475m   36.6365n  700.0000m  498.1747m  491.7748m 
 -491.67475m   36.8085n  700.0000m  498.2747m  491.6748m 
 -491.57475m   36.9815n  700.0000m  498.3747m  491.5748m 
 -491.47475m   37.1555n  700.0000m  498.4747m  491.4748m 
 -491.37475m   37.3305n  700.0000m  498.5747m  491.3748m 
 -491.27475m   37.5065n  700.0000m  498.6747m  491.2748m 
 -491.17475m   37.6836n  700.0000m  498.7747m  491.1748m 
 -491.07475m   37.8616n  700.0000m  498.8747m  491.0748m 
 -490.97475m   38.0407n  700.0000m  498.9747m  490.9748m 
 -490.87475m   38.2208n  700.0000m  499.0747m  490.8748m 
 -490.77475m   38.4019n  700.0000m  499.1747m  490.7748m 
 -490.67475m   38.5841n  700.0000m  499.2747m  490.6748m 
 -490.57475m   38.7674n  700.0000m  499.3747m  490.5748m 
 -490.47475m   38.9517n  700.0000m  499.4747m  490.4748m 
 -490.37475m   39.1370n  700.0000m  499.5747m  490.3748m 
 -490.27475m   39.3234n  700.0000m  499.6747m  490.2748m 
 -490.17475m   39.5109n  700.0000m  499.7747m  490.1748m 
 -490.07475m   39.6995n  700.0000m  499.8747m  490.0748m 
 -489.97475m   39.8892n  700.0000m  499.9747m  489.9748m 
 -489.87475m   40.0799n  700.0000m  500.0747m  489.8748m 
 -489.77475m   40.2718n  700.0000m  500.1747m  489.7748m 
 -489.67475m   40.4647n  700.0000m  500.2747m  489.6748m 
 -489.57475m   40.6588n  700.0000m  500.3747m  489.5748m 
 -489.47475m   40.8540n  700.0000m  500.4747m  489.4748m 
 -489.37475m   41.0503n  700.0000m  500.5747m  489.3748m 
 -489.27475m   41.2478n  700.0000m  500.6747m  489.2748m 
 -489.17475m   41.4463n  700.0000m  500.7747m  489.1748m 
 -489.07475m   41.6461n  700.0000m  500.8747m  489.0748m 
 -488.97475m   41.8469n  700.0000m  500.9747m  488.9748m 
 -488.87475m   42.0490n  700.0000m  501.0747m  488.8748m 
 -488.77475m   42.2522n  700.0000m  501.1747m  488.7748m 
 -488.67475m   42.4565n  700.0000m  501.2747m  488.6748m 
 -488.57475m   42.6621n  700.0000m  501.3747m  488.5748m 
 -488.47475m   42.8688n  700.0000m  501.4747m  488.4748m 
 -488.37475m   43.0767n  700.0000m  501.5747m  488.3748m 
 -488.27475m   43.2859n  700.0000m  501.6747m  488.2748m 
 -488.17475m   43.4962n  700.0000m  501.7747m  488.1748m 
 -488.07475m   43.7077n  700.0000m  501.8747m  488.0748m 
 -487.97475m   43.9205n  700.0000m  501.9747m  487.9748m 
 -487.87475m   44.1345n  700.0000m  502.0747m  487.8748m 
 -487.77475m   44.3497n  700.0000m  502.1747m  487.7748m 
 -487.67475m   44.5661n  700.0000m  502.2747m  487.6748m 
 -487.57475m   44.7838n  700.0000m  502.3747m  487.5748m 
 -487.47475m   45.0028n  700.0000m  502.4747m  487.4748m 
 -487.37475m   45.2230n  700.0000m  502.5747m  487.3748m 
 -487.27475m   45.4445n  700.0000m  502.6747m  487.2748m 
 -487.17475m   45.6673n  700.0000m  502.7747m  487.1748m 
 -487.07475m   45.8913n  700.0000m  502.8747m  487.0748m 
 -486.97475m   46.1167n  700.0000m  502.9747m  486.9748m 
 -486.87475m   46.3433n  700.0000m  503.0747m  486.8748m 
 -486.77475m   46.5713n  700.0000m  503.1747m  486.7748m 
 -486.67475m   46.8005n  700.0000m  503.2747m  486.6748m 
 -486.57475m   47.0311n  700.0000m  503.3747m  486.5748m 
 -486.47475m   47.2630n  700.0000m  503.4747m  486.4748m 
 -486.37475m   47.4963n  700.0000m  503.5747m  486.3748m 
 -486.27475m   47.7308n  700.0000m  503.6747m  486.2748m 
 -486.17475m   47.9668n  700.0000m  503.7747m  486.1748m 
 -486.07475m   48.2041n  700.0000m  503.8747m  486.0748m 
 -485.97475m   48.4428n  700.0000m  503.9747m  485.9748m 
 -485.87475m   48.6828n  700.0000m  504.0747m  485.8748m 
 -485.77475m   48.9242n  700.0000m  504.1747m  485.7748m 
 -485.67475m   49.1671n  700.0000m  504.2747m  485.6748m 
 -485.57475m   49.4113n  700.0000m  504.3747m  485.5748m 
 -485.47475m   49.6569n  700.0000m  504.4747m  485.4748m 
 -485.37475m   49.9040n  700.0000m  504.5747m  485.3748m 
 -485.27475m   50.1524n  700.0000m  504.6747m  485.2748m 
 -485.17475m   50.4024n  700.0000m  504.7747m  485.1748m 
 -485.07475m   50.6537n  700.0000m  504.8747m  485.0748m 
 -484.97475m   50.9065n  700.0000m  504.9747m  484.9748m 
 -484.87475m   51.1607n  700.0000m  505.0747m  484.8748m 
 -484.77475m   51.4165n  700.0000m  505.1747m  484.7748m 
 -484.67475m   51.6737n  700.0000m  505.2747m  484.6748m 
 -484.57475m   51.9323n  700.0000m  505.3747m  484.5748m 
 -484.47475m   52.1925n  700.0000m  505.4747m  484.4748m 
 -484.37475m   52.4542n  700.0000m  505.5747m  484.3748m 
 -484.27475m   52.7173n  700.0000m  505.6747m  484.2748m 
 -484.17475m   52.9820n  700.0000m  505.7747m  484.1748m 
 -484.07475m   53.2483n  700.0000m  505.8747m  484.0748m 
 -483.97475m   53.5160n  700.0000m  505.9747m  483.9748m 
 -483.87475m   53.7853n  700.0000m  506.0747m  483.8748m 
 -483.77475m   54.0562n  700.0000m  506.1747m  483.7748m 
 -483.67475m   54.3286n  700.0000m  506.2747m  483.6748m 
 -483.57475m   54.6026n  700.0000m  506.3747m  483.5748m 
 -483.47475m   54.8781n  700.0000m  506.4747m  483.4748m 
 -483.37475m   55.1553n  700.0000m  506.5747m  483.3748m 
 -483.27475m   55.4340n  700.0000m  506.6747m  483.2748m 
 -483.17475m   55.7144n  700.0000m  506.7747m  483.1748m 
 -483.07475m   55.9964n  700.0000m  506.8747m  483.0748m 
 -482.97475m   56.2800n  700.0000m  506.9747m  482.9748m 
 -482.87475m   56.5652n  700.0000m  507.0747m  482.8748m 
 -482.77475m   56.8521n  700.0000m  507.1747m  482.7748m 
 -482.67475m   57.1407n  700.0000m  507.2747m  482.6748m 
 -482.57475m   57.4309n  700.0000m  507.3747m  482.5748m 
 -482.47475m   57.7228n  700.0000m  507.4747m  482.4748m 
 -482.37475m   58.0163n  700.0000m  507.5747m  482.3748m 
 -482.27475m   58.3116n  700.0000m  507.6747m  482.2748m 
 -482.17475m   58.6086n  700.0000m  507.7747m  482.1748m 
 -482.07475m   58.9072n  700.0000m  507.8747m  482.0748m 
 -481.97475m   59.2076n  700.0000m  507.9747m  481.9748m 
 -481.87475m   59.5098n  700.0000m  508.0747m  481.8748m 
 -481.77475m   59.8136n  700.0000m  508.1747m  481.7748m 
 -481.67475m   60.1193n  700.0000m  508.2747m  481.6748m 
 -481.57475m   60.4267n  700.0000m  508.3747m  481.5748m 
 -481.47475m   60.7358n  700.0000m  508.4747m  481.4748m 
 -481.37475m   61.0468n  700.0000m  508.5747m  481.3748m 
 -481.27475m   61.3595n  700.0000m  508.6747m  481.2748m 
 -481.17475m   61.6741n  700.0000m  508.7747m  481.1748m 
 -481.07475m   61.9905n  700.0000m  508.8747m  481.0748m 
 -480.97475m   62.3086n  700.0000m  508.9747m  480.9748m 
 -480.87475m   62.6287n  700.0000m  509.0747m  480.8748m 
 -480.77475m   62.9506n  700.0000m  509.1747m  480.7748m 
 -480.67475m   63.2743n  700.0000m  509.2747m  480.6748m 
 -480.57475m   63.5999n  700.0000m  509.3747m  480.5748m 
 -480.47475m   63.9274n  700.0000m  509.4747m  480.4748m 
 -480.37475m   64.2568n  700.0000m  509.5747m  480.3748m 
 -480.27475m   64.5880n  700.0000m  509.6747m  480.2748m 
 -480.17475m   64.9212n  700.0000m  509.7747m  480.1748m 
 -480.07475m   65.2563n  700.0000m  509.8747m  480.0748m 
 -479.97475m   65.5934n  700.0000m  509.9747m  479.9748m 
 -479.87475m   65.9324n  700.0000m  510.0747m  479.8748m 
 -479.77475m   66.2733n  700.0000m  510.1747m  479.7748m 
 -479.67475m   66.6162n  700.0000m  510.2747m  479.6748m 
 -479.57475m   66.9611n  700.0000m  510.3747m  479.5748m 
 -479.47475m   67.3080n  700.0000m  510.4747m  479.4748m 
 -479.37475m   67.6569n  700.0000m  510.5747m  479.3748m 
 -479.27475m   68.0078n  700.0000m  510.6747m  479.2748m 
 -479.17475m   68.3607n  700.0000m  510.7747m  479.1748m 
 -479.07475m   68.7157n  700.0000m  510.8747m  479.0748m 
 -478.97475m   69.0727n  700.0000m  510.9747m  478.9748m 
 -478.87475m   69.4318n  700.0000m  511.0747m  478.8748m 
 -478.77475m   69.7930n  700.0000m  511.1747m  478.7748m 
 -478.67475m   70.1562n  700.0000m  511.2747m  478.6748m 
 -478.57475m   70.5216n  700.0000m  511.3747m  478.5748m 
 -478.47475m   70.8890n  700.0000m  511.4747m  478.4748m 
 -478.37475m   71.2586n  700.0000m  511.5747m  478.3748m 
 -478.27475m   71.6303n  700.0000m  511.6747m  478.2748m 
 -478.17475m   72.0041n  700.0000m  511.7747m  478.1748m 
 -478.07475m   72.3802n  700.0000m  511.8747m  478.0748m 
 -477.97475m   72.7584n  700.0000m  511.9747m  477.9748m 
 -477.87475m   73.1387n  700.0000m  512.0747m  477.8749m 
 -477.77475m   73.5213n  700.0000m  512.1747m  477.7749m 
 -477.67475m   73.9061n  700.0000m  512.2747m  477.6749m 
 -477.57475m   74.2931n  700.0000m  512.3747m  477.5749m 
 -477.47475m   74.6823n  700.0000m  512.4747m  477.4749m 
 -477.37475m   75.0738n  700.0000m  512.5747m  477.3749m 
 -477.27475m   75.4676n  700.0000m  512.6747m  477.2749m 
 -477.17475m   75.8636n  700.0000m  512.7747m  477.1749m 
 -477.07475m   76.2619n  700.0000m  512.8747m  477.0749m 
 -476.97475m   76.6625n  700.0000m  512.9747m  476.9749m 
 -476.87475m   77.0654n  700.0000m  513.0747m  476.8749m 
 -476.77475m   77.4707n  700.0000m  513.1747m  476.7749m 
 -476.67475m   77.8783n  700.0000m  513.2747m  476.6749m 
 -476.57475m   78.2883n  700.0000m  513.3747m  476.5749m 
 -476.47475m   78.7006n  700.0000m  513.4747m  476.4749m 
 -476.37475m   79.1153n  700.0000m  513.5747m  476.3749m 
 -476.27475m   79.5324n  700.0000m  513.6747m  476.2749m 
 -476.17475m   79.9519n  700.0000m  513.7747m  476.1749m 
 -476.07475m   80.3739n  700.0000m  513.8747m  476.0749m 
 -475.97475m   80.7982n  700.0000m  513.9747m  475.9749m 
 -475.87475m   81.2251n  700.0000m  514.0747m  475.8749m 
 -475.77475m   81.6544n  700.0000m  514.1747m  475.7749m 
 -475.67475m   82.0862n  700.0000m  514.2747m  475.6749m 
 -475.57475m   82.5204n  700.0000m  514.3747m  475.5749m 
 -475.47475m   82.9572n  700.0000m  514.4747m  475.4749m 
 -475.37475m   83.3966n  700.0000m  514.5747m  475.3749m 
 -475.27475m   83.8384n  700.0000m  514.6747m  475.2749m 
 -475.17475m   84.2828n  700.0000m  514.7747m  475.1749m 
 -475.07475m   84.7298n  700.0000m  514.8747m  475.0749m 
 -474.97475m   85.1794n  700.0000m  514.9747m  474.9749m 
 -474.87475m   85.6315n  700.0000m  515.0747m  474.8749m 
 -474.77475m   86.0863n  700.0000m  515.1747m  474.7749m 
 -474.67475m   86.5437n  700.0000m  515.2747m  474.6749m 
 -474.57475m   87.0038n  700.0000m  515.3747m  474.5749m 
 -474.47475m   87.4665n  700.0000m  515.4747m  474.4749m 
 -474.37475m   87.9319n  700.0000m  515.5747m  474.3749m 
 -474.27475m   88.4000n  700.0000m  515.6747m  474.2749m 
 -474.17475m   88.8708n  700.0000m  515.7747m  474.1749m 
 -474.07475m   89.3443n  700.0000m  515.8747m  474.0749m 
 -473.97475m   89.8206n  700.0000m  515.9747m  473.9749m 
 -473.87475m   90.2996n  700.0000m  516.0747m  473.8749m 
 -473.77475m   90.7814n  700.0000m  516.1747m  473.7749m 
 -473.67475m   91.2659n  700.0000m  516.2747m  473.6749m 
 -473.57475m   91.7533n  700.0000m  516.3747m  473.5749m 
 -473.47475m   92.2435n  700.0000m  516.4747m  473.4749m 
 -473.37475m   92.7365n  700.0000m  516.5747m  473.3749m 
 -473.27475m   93.2324n  700.0000m  516.6747m  473.2749m 
 -473.17475m   93.7312n  700.0000m  516.7747m  473.1749m 
 -473.07475m   94.2328n  700.0000m  516.8747m  473.0749m 
 -472.97475m   94.7374n  700.0000m  516.9747m  472.9749m 
 -472.87475m   95.2448n  700.0000m  517.0747m  472.8749m 
 -472.77475m   95.7552n  700.0000m  517.1747m  472.7749m 
 -472.67475m   96.2686n  700.0000m  517.2747m  472.6749m 
 -472.57475m   96.7849n  700.0000m  517.3747m  472.5749m 
 -472.47475m   97.3042n  700.0000m  517.4747m  472.4749m 
 -472.37475m   97.8265n  700.0000m  517.5747m  472.3749m 
 -472.27475m   98.3519n  700.0000m  517.6747m  472.2749m 
 -472.17475m   98.8803n  700.0000m  517.7747m  472.1749m 
 -472.07475m   99.4117n  700.0000m  517.8747m  472.0749m 
 -471.97475m   99.9462n  700.0000m  517.9747m  471.9749m 
 -471.87475m  100.4839n  700.0000m  518.0747m  471.8749m 
 -471.77475m  101.0246n  700.0000m  518.1747m  471.7749m 
 -471.67475m  101.5684n  700.0000m  518.2747m  471.6749m 
 -471.57475m  102.1155n  700.0000m  518.3747m  471.5749m 
 -471.47475m  102.6656n  700.0000m  518.4747m  471.4749m 
 -471.37475m  103.2190n  700.0000m  518.5747m  471.3749m 
 -471.27475m  103.7756n  700.0000m  518.6747m  471.2749m 
 -471.17475m  104.3353n  700.0000m  518.7747m  471.1749m 
 -471.07475m  104.8984n  700.0000m  518.8747m  471.0749m 
 -470.97475m  105.4647n  700.0000m  518.9747m  470.9749m 
 -470.87475m  106.0342n  700.0000m  519.0747m  470.8749m 
 -470.77475m  106.6071n  700.0000m  519.1747m  470.7749m 
 -470.67475m  107.1833n  700.0000m  519.2747m  470.6749m 
 -470.57475m  107.7628n  700.0000m  519.3747m  470.5749m 
 -470.47475m  108.3457n  700.0000m  519.4747m  470.4749m 
 -470.37475m  108.9320n  700.0000m  519.5747m  470.3749m 
 -470.27475m  109.5216n  700.0000m  519.6747m  470.2749m 
 -470.17475m  110.1147n  700.0000m  519.7747m  470.1749m 
 -470.07475m  110.7112n  700.0000m  519.8747m  470.0749m 
 -469.97475m  111.3112n  700.0000m  519.9747m  469.9749m 
 -469.87475m  111.9146n  700.0000m  520.0747m  469.8749m 
 -469.77475m  112.5216n  700.0000m  520.1747m  469.7749m 
 -469.67475m  113.1320n  700.0000m  520.2747m  469.6749m 
 -469.57475m  113.7460n  700.0000m  520.3747m  469.5749m 
 -469.47475m  114.3636n  700.0000m  520.4747m  469.4749m 
 -469.37475m  114.9847n  700.0000m  520.5747m  469.3749m 
 -469.27475m  115.6094n  700.0000m  520.6747m  469.2749m 
 -469.17475m  116.2378n  700.0000m  520.7747m  469.1749m 
 -469.07475m  116.8698n  700.0000m  520.8747m  469.0749m 
 -468.97475m  117.5054n  700.0000m  520.9747m  468.9749m 
 -468.87475m  118.1448n  700.0000m  521.0747m  468.8749m 
 -468.77475m  118.7878n  700.0000m  521.1747m  468.7749m 
 -468.67475m  119.4346n  700.0000m  521.2747m  468.6749m 
 -468.57475m  120.0851n  700.0000m  521.3747m  468.5749m 
 -468.47475m  120.7394n  700.0000m  521.4747m  468.4749m 
 -468.37475m  121.3975n  700.0000m  521.5747m  468.3749m 
 -468.27475m  122.0594n  700.0000m  521.6747m  468.2749m 
 -468.17475m  122.7251n  700.0000m  521.7747m  468.1749m 
 -468.07475m  123.3947n  700.0000m  521.8747m  468.0749m 
 -467.97475m  124.0682n  700.0000m  521.9747m  467.9749m 
 -467.87475m  124.7456n  700.0000m  522.0747m  467.8749m 
 -467.77475m  125.4269n  700.0000m  522.1747m  467.7749m 
 -467.67475m  126.1122n  700.0000m  522.2747m  467.6749m 
 -467.57475m  126.8014n  700.0000m  522.3747m  467.5749m 
 -467.47475m  127.4947n  700.0000m  522.4747m  467.4749m 
 -467.37475m  128.1920n  700.0000m  522.5747m  467.3749m 
 -467.27475m  128.8933n  700.0000m  522.6747m  467.2749m 
 -467.17475m  129.5986n  700.0000m  522.7747m  467.1749m 
 -467.07475m  130.3081n  700.0000m  522.8747m  467.0749m 
 -466.97475m  131.0217n  700.0000m  522.9747m  466.9749m 
 -466.87475m  131.7394n  700.0000m  523.0747m  466.8749m 
 -466.77475m  132.4613n  700.0000m  523.1747m  466.7749m 
 -466.67475m  133.1874n  700.0000m  523.2747m  466.6749m 
 -466.57475m  133.9177n  700.0000m  523.3747m  466.5749m 
 -466.47475m  134.6522n  700.0000m  523.4747m  466.4749m 
 -466.37475m  135.3910n  700.0000m  523.5747m  466.3749m 
 -466.27475m  136.1341n  700.0000m  523.6747m  466.2749m 
 -466.17475m  136.8815n  700.0000m  523.7747m  466.1749m 
 -466.07475m  137.6332n  700.0000m  523.8747m  466.0749m 
 -465.97475m  138.3893n  700.0000m  523.9747m  465.9749m 
 -465.87475m  139.1498n  700.0000m  524.0747m  465.8749m 
 -465.77475m  139.9147n  700.0000m  524.1747m  465.7749m 
 -465.67475m  140.6840n  700.0000m  524.2747m  465.6749m 
 -465.57475m  141.4578n  700.0000m  524.3747m  465.5749m 
 -465.47475m  142.2361n  700.0000m  524.4747m  465.4749m 
 -465.37475m  143.0189n  700.0000m  524.5747m  465.3749m 
 -465.27475m  143.8063n  700.0000m  524.6747m  465.2750m 
 -465.17475m  144.5982n  700.0000m  524.7747m  465.1750m 
 -465.07475m  145.3947n  700.0000m  524.8747m  465.0750m 
 -464.97475m  146.1959n  700.0000m  524.9747m  464.9750m 
 -464.87475m  147.0017n  700.0000m  525.0747m  464.8750m 
 -464.77475m  147.8121n  700.0000m  525.1747m  464.7750m 
 -464.67475m  148.6273n  700.0000m  525.2747m  464.6750m 
 -464.57475m  149.4472n  700.0000m  525.3747m  464.5750m 
 -464.47475m  150.2719n  700.0000m  525.4747m  464.4750m 
 -464.37475m  151.1014n  700.0000m  525.5747m  464.3750m 
 -464.27475m  151.9357n  700.0000m  525.6747m  464.2750m 
 -464.17475m  152.7748n  700.0000m  525.7747m  464.1750m 
 -464.07475m  153.6188n  700.0000m  525.8747m  464.0750m 
 -463.97475m  154.4678n  700.0000m  525.9747m  463.9750m 
 -463.87475m  155.3216n  700.0000m  526.0747m  463.8750m 
 -463.77475m  156.1804n  700.0000m  526.1747m  463.7750m 
 -463.67475m  157.0442n  700.0000m  526.2747m  463.6750m 
 -463.57475m  157.9130n  700.0000m  526.3747m  463.5750m 
 -463.47475m  158.7869n  700.0000m  526.4747m  463.4750m 
 -463.37475m  159.6658n  700.0000m  526.5747m  463.3750m 
 -463.27475m  160.5499n  700.0000m  526.6747m  463.2750m 
 -463.17475m  161.4391n  700.0000m  526.7747m  463.1750m 
 -463.07475m  162.3334n  700.0000m  526.8747m  463.0750m 
 -462.97475m  163.2330n  700.0000m  526.9747m  462.9750m 
 -462.87475m  164.1378n  700.0000m  527.0747m  462.8750m 
 -462.77475m  165.0478n  700.0000m  527.1747m  462.7750m 
 -462.67475m  165.9631n  700.0000m  527.2747m  462.6750m 
 -462.57475m  166.8838n  700.0000m  527.3747m  462.5750m 
 -462.47475m  167.8098n  700.0000m  527.4747m  462.4750m 
 -462.37475m  168.7412n  700.0000m  527.5747m  462.3750m 
 -462.27475m  169.6780n  700.0000m  527.6747m  462.2750m 
 -462.17475m  170.6202n  700.0000m  527.7747m  462.1750m 
 -462.07475m  171.5679n  700.0000m  527.8747m  462.0750m 
 -461.97475m  172.5212n  700.0000m  527.9747m  461.9750m 
 -461.87475m  173.4800n  700.0000m  528.0747m  461.8750m 
 -461.77475m  174.4443n  700.0000m  528.1747m  461.7750m 
 -461.67475m  175.4143n  700.0000m  528.2747m  461.6750m 
 -461.57475m  176.3899n  700.0000m  528.3747m  461.5750m 
 -461.47475m  177.3712n  700.0000m  528.4747m  461.4750m 
 -461.37475m  178.3582n  700.0000m  528.5747m  461.3750m 
 -461.27475m  179.3509n  700.0000m  528.6747m  461.2750m 
 -461.17475m  180.3494n  700.0000m  528.7747m  461.1750m 
 -461.07475m  181.3537n  700.0000m  528.8747m  461.0750m 
 -460.97475m  182.3638n  700.0000m  528.9747m  460.9750m 
 -460.87475m  183.3799n  700.0000m  529.0747m  460.8750m 
 -460.77475m  184.4018n  700.0000m  529.1747m  460.7750m 
 -460.67475m  185.4297n  700.0000m  529.2747m  460.6750m 
 -460.57475m  186.4636n  700.0000m  529.3747m  460.5750m 
 -460.47475m  187.5034n  700.0000m  529.4747m  460.4750m 
 -460.37475m  188.5494n  700.0000m  529.5747m  460.3750m 
 -460.27475m  189.6014n  700.0000m  529.6747m  460.2750m 
 -460.17475m  190.6595n  700.0000m  529.7747m  460.1750m 
 -460.07475m  191.7238n  700.0000m  529.8747m  460.0750m 
 -459.97475m  192.7943n  700.0000m  529.9747m  459.9750m 
 -459.87475m  193.8711n  700.0000m  530.0747m  459.8750m 
 -459.77475m  194.9541n  700.0000m  530.1747m  459.7750m 
 -459.67475m  196.0434n  700.0000m  530.2747m  459.6750m 
 -459.57475m  197.1390n  700.0000m  530.3747m  459.5750m 
 -459.47475m  198.2410n  700.0000m  530.4747m  459.4750m 
 -459.37475m  199.3495n  700.0000m  530.5747m  459.3750m 
 -459.27475m  200.4643n  700.0000m  530.6747m  459.2750m 
 -459.17475m  201.5857n  700.0000m  530.7747m  459.1750m 
 -459.07475m  202.7136n  700.0000m  530.8747m  459.0750m 
 -458.97475m  203.8481n  700.0000m  530.9747m  458.9750m 
 -458.87475m  204.9892n  700.0000m  531.0747m  458.8750m 
 -458.77475m  206.1369n  700.0000m  531.1747m  458.7750m 
 -458.67475m  207.2913n  700.0000m  531.2747m  458.6750m 
 -458.57475m  208.4525n  699.9999m  531.3747m  458.5750m 
 -458.47475m  209.6204n  699.9999m  531.4747m  458.4750m 
 -458.37475m  210.7951n  699.9999m  531.5747m  458.3750m 
 -458.27475m  211.9766n  699.9999m  531.6747m  458.2750m 
 -458.17475m  213.1651n  699.9999m  531.7747m  458.1750m 
 -458.07475m  214.3604n  699.9999m  531.8747m  458.0750m 
 -457.97475m  215.5627n  699.9999m  531.9747m  457.9751m 
 -457.87475m  216.7720n  699.9999m  532.0747m  457.8751m 
 -457.77475m  217.9884n  699.9999m  532.1747m  457.7751m 
 -457.67475m  219.2119n  699.9999m  532.2747m  457.6751m 
 -457.57475m  220.4424n  699.9999m  532.3747m  457.5751m 
 -457.47475m  221.6802n  699.9999m  532.4747m  457.4751m 
 -457.37475m  222.9252n  699.9999m  532.5747m  457.3751m 
 -457.27475m  224.1774n  699.9999m  532.6747m  457.2751m 
 -457.17475m  225.4369n  699.9999m  532.7747m  457.1751m 
 -457.07475m  226.7038n  699.9999m  532.8747m  457.0751m 
 -456.97475m  227.9780n  699.9999m  532.9747m  456.9751m 
 -456.87475m  229.2597n  699.9999m  533.0747m  456.8751m 
 -456.77475m  230.5489n  699.9999m  533.1747m  456.7751m 
 -456.67475m  231.8455n  699.9999m  533.2747m  456.6751m 
 -456.57475m  233.1498n  699.9999m  533.3747m  456.5751m 
 -456.47475m  234.4616n  699.9999m  533.4747m  456.4751m 
 -456.37475m  235.7811n  699.9999m  533.5747m  456.3751m 
 -456.27475m  237.1082n  699.9999m  533.6747m  456.2751m 
 -456.17475m  238.4431n  699.9999m  533.7747m  456.1751m 
 -456.07475m  239.7858n  699.9999m  533.8747m  456.0751m 
 -455.97475m  241.1364n  699.9999m  533.9747m  455.9751m 
 -455.87475m  242.4948n  699.9999m  534.0747m  455.8751m 
 -455.77475m  243.8611n  699.9999m  534.1747m  455.7751m 
 -455.67475m  245.2354n  699.9999m  534.2747m  455.6751m 
 -455.57475m  246.6177n  699.9999m  534.3747m  455.5751m 
 -455.47475m  248.0081n  699.9999m  534.4747m  455.4751m 
 -455.37475m  249.4066n  699.9999m  534.5747m  455.3751m 
 -455.27475m  250.8132n  699.9999m  534.6747m  455.2751m 
 -455.17475m  252.2281n  699.9999m  534.7747m  455.1751m 
 -455.07475m  253.6512n  699.9999m  534.8747m  455.0751m 
 -454.97475m  255.0826n  699.9999m  534.9747m  454.9751m 
 -454.87475m  256.5224n  699.9999m  535.0747m  454.8751m 
 -454.77475m  257.9705n  699.9999m  535.1747m  454.7751m 
 -454.67475m  259.4271n  699.9999m  535.2747m  454.6751m 
 -454.57475m  260.8923n  699.9999m  535.3747m  454.5751m 
 -454.47475m  262.3659n  699.9999m  535.4747m  454.4751m 
 -454.37475m  263.8482n  699.9999m  535.5747m  454.3751m 
 -454.27475m  265.3391n  699.9999m  535.6747m  454.2751m 
 -454.17475m  266.8388n  699.9999m  535.7747m  454.1751m 
 -454.07475m  268.3472n  699.9999m  535.8747m  454.0751m 
 -453.97475m  269.8643n  699.9999m  535.9747m  453.9751m 
 -453.87475m  271.3904n  699.9999m  536.0747m  453.8751m 
 -453.77475m  272.9253n  699.9999m  536.1747m  453.7751m 
 -453.67475m  274.4693n  699.9999m  536.2747m  453.6751m 
 -453.57475m  276.0222n  699.9999m  536.3747m  453.5751m 
 -453.47475m  277.5842n  699.9999m  536.4747m  453.4751m 
 -453.37475m  279.1553n  699.9999m  536.5747m  453.3751m 
 -453.27475m  280.7356n  699.9999m  536.6747m  453.2751m 
 -453.17475m  282.3252n  699.9999m  536.7747m  453.1751m 
 -453.07475m  283.9240n  699.9999m  536.8747m  453.0751m 
 -452.97475m  285.5321n  699.9999m  536.9747m  452.9752m 
 -452.87475m  287.1497n  699.9999m  537.0747m  452.8752m 
 -452.77475m  288.7767n  699.9999m  537.1747m  452.7752m 
 -452.67475m  290.4132n  699.9999m  537.2746m  452.6752m 
 -452.57475m  292.0593n  699.9999m  537.3746m  452.5752m 
 -452.47475m  293.7150n  699.9999m  537.4746m  452.4752m 
 -452.37475m  295.3803n  699.9999m  537.5746m  452.3752m 
 -452.27475m  297.0554n  699.9999m  537.6746m  452.2752m 
 -452.17475m  298.7403n  699.9999m  537.7746m  452.1752m 
 -452.07475m  300.4350n  699.9999m  537.8746m  452.0752m 
 -451.97475m  302.1396n  699.9999m  537.9746m  451.9752m 
 -451.87475m  303.8542n  699.9999m  538.0746m  451.8752m 
 -451.77475m  305.5788n  699.9999m  538.1746m  451.7752m 
 -451.67475m  307.3135n  699.9999m  538.2746m  451.6752m 
 -451.57475m  309.0584n  699.9999m  538.3746m  451.5752m 
 -451.47475m  310.8134n  699.9999m  538.4746m  451.4752m 
 -451.37475m  312.5787n  699.9999m  538.5746m  451.3752m 
 -451.27475m  314.3543n  699.9999m  538.6746m  451.2752m 
 -451.17475m  316.1403n  699.9999m  538.7746m  451.1752m 
 -451.07475m  317.9368n  699.9999m  538.8746m  451.0752m 
 -450.97475m  319.7437n  699.9999m  538.9746m  450.9752m 
 -450.87475m  321.5612n  699.9999m  539.0746m  450.8752m 
 -450.77475m  323.3894n  699.9999m  539.1746m  450.7752m 
 -450.67475m  325.2282n  699.9999m  539.2746m  450.6752m 
 -450.57475m  327.0778n  699.9999m  539.3746m  450.5752m 
 -450.47475m  328.9382n  699.9999m  539.4746m  450.4752m 
 -450.37475m  330.8095n  699.9999m  539.5746m  450.3752m 
 -450.27475m  332.6918n  699.9999m  539.6746m  450.2752m 
 -450.17475m  334.5850n  699.9999m  539.7746m  450.1752m 
 -450.07475m  336.4893n  699.9999m  539.8746m  450.0752m 
 -449.97475m  338.4048n  699.9999m  539.9746m  449.9752m 
 -449.87475m  340.3315n  699.9999m  540.0746m  449.8752m 
 -449.77475m  342.2695n  699.9999m  540.1746m  449.7752m 
 -449.67475m  344.2187n  699.9999m  540.2746m  449.6752m 
 -449.57475m  346.1794n  699.9999m  540.3746m  449.5752m 
 -449.47475m  348.1516n  699.9999m  540.4746m  449.4752m 
 -449.37475m  350.1353n  699.9999m  540.5746m  449.3752m 
 -449.27475m  352.1307n  699.9999m  540.6746m  449.2752m 
 -449.17475m  354.1377n  699.9999m  540.7746m  449.1752m 
 -449.07475m  356.1564n  699.9999m  540.8746m  449.0753m 
 -448.97475m  358.1870n  699.9999m  540.9746m  448.9753m 
 -448.87475m  360.2295n  699.9999m  541.0746m  448.8753m 
 -448.77475m  362.2839n  699.9999m  541.1746m  448.7753m 
 -448.67475m  364.3504n  699.9999m  541.2746m  448.6753m 
 -448.57475m  366.4289n  699.9999m  541.3746m  448.5753m 
 -448.47475m  368.5196n  699.9999m  541.4746m  448.4753m 
 -448.37475m  370.6226n  699.9999m  541.5746m  448.3753m 
 -448.27475m  372.7379n  699.9999m  541.6746m  448.2753m 
 -448.17475m  374.8655n  699.9999m  541.7746m  448.1753m 
 -448.07475m  377.0057n  699.9999m  541.8746m  448.0753m 
 -447.97475m  379.1583n  699.9999m  541.9746m  447.9753m 
 -447.87475m  381.3236n  699.9999m  542.0746m  447.8753m 
 -447.77475m  383.5016n  699.9999m  542.1746m  447.7753m 
 -447.67475m  385.6923n  699.9999m  542.2746m  447.6753m 
 -447.57475m  387.8959n  699.9999m  542.3746m  447.5753m 
 -447.47475m  390.1123n  699.9999m  542.4746m  447.4753m 
 -447.37475m  392.3418n  699.9999m  542.5746m  447.3753m 
 -447.27475m  394.5843n  699.9999m  542.6746m  447.2753m 
 -447.17475m  396.8400n  699.9999m  542.7746m  447.1753m 
 -447.07475m  399.1089n  699.9999m  542.8746m  447.0753m 
 -446.97475m  401.3910n  699.9999m  542.9746m  446.9753m 
 -446.87475m  403.6866n  699.9999m  543.0746m  446.8753m 
 -446.77475m  405.9956n  699.9999m  543.1746m  446.7753m 
 -446.67475m  408.3181n  699.9999m  543.2746m  446.6753m 
 -446.57475m  410.6543n  699.9999m  543.3746m  446.5753m 
 -446.47475m  413.0042n  699.9999m  543.4746m  446.4753m 
 -446.37475m  415.3678n  699.9999m  543.5746m  446.3753m 
 -446.27475m  417.7453n  699.9999m  543.6746m  446.2753m 
 -446.17475m  420.1367n  699.9999m  543.7746m  446.1753m 
 -446.07475m  422.5422n  699.9999m  543.8746m  446.0753m 
 -445.97475m  424.9617n  699.9999m  543.9746m  445.9753m 
 -445.87475m  427.3955n  699.9999m  544.0746m  445.8754m 
 -445.77475m  429.8435n  699.9999m  544.1746m  445.7754m 
 -445.67475m  432.3059n  699.9999m  544.2746m  445.6754m 
 -445.57475m  434.7827n  699.9999m  544.3746m  445.5754m 
 -445.47475m  437.2741n  699.9999m  544.4746m  445.4754m 
 -445.37475m  439.7800n  699.9999m  544.5746m  445.3754m 
 -445.27475m  442.3007n  699.9999m  544.6746m  445.2754m 
 -445.17475m  444.8362n  699.9999m  544.7746m  445.1754m 
 -445.07475m  447.3865n  699.9999m  544.8746m  445.0754m 
 -444.97475m  449.9518n  699.9999m  544.9746m  444.9754m 
 -444.87475m  452.5322n  699.9999m  545.0746m  444.8754m 
 -444.77475m  455.1277n  699.9999m  545.1746m  444.7754m 
 -444.67475m  457.7384n  699.9999m  545.2746m  444.6754m 
 -444.57475m  460.3644n  699.9999m  545.3746m  444.5754m 
 -444.47475m  463.0059n  699.9999m  545.4746m  444.4754m 
 -444.37475m  465.6629n  699.9999m  545.5746m  444.3754m 
 -444.27475m  468.3354n  699.9999m  545.6746m  444.2754m 
 -444.17475m  471.0237n  699.9999m  545.7746m  444.1754m 
 -444.07475m  473.7277n  699.9999m  545.8746m  444.0754m 
 -443.97475m  476.4476n  699.9999m  545.9746m  443.9754m 
 -443.87475m  479.1835n  699.9999m  546.0746m  443.8754m 
 -443.77475m  481.9355n  699.9999m  546.1746m  443.7754m 
 -443.67475m  484.7036n  699.9999m  546.2746m  443.6754m 
 -443.57475m  487.4879n  699.9999m  546.3746m  443.5754m 
 -443.47475m  490.2887n  699.9999m  546.4746m  443.4754m 
 -443.37475m  493.1058n  699.9999m  546.5746m  443.3754m 
 -443.27475m  495.9395n  699.9999m  546.6746m  443.2754m 
 -443.17475m  498.7899n  699.9999m  546.7746m  443.1755m 
 -443.07475m  501.6570n  699.9999m  546.8746m  443.0755m 
 -442.97475m  504.5409n  699.9999m  546.9746m  442.9755m 
 -442.87475m  507.4418n  699.9999m  547.0746m  442.8755m 
 -442.77475m  510.3597n  699.9999m  547.1746m  442.7755m 
 -442.67475m  513.2948n  699.9999m  547.2746m  442.6755m 
 -442.57475m  516.2471n  699.9999m  547.3746m  442.5755m 
 -442.47475m  519.2168n  699.9999m  547.4746m  442.4755m 
 -442.37475m  522.2039n  699.9999m  547.5746m  442.3755m 
 -442.27475m  525.2086n  699.9999m  547.6746m  442.2755m 
 -442.17475m  528.2309n  699.9999m  547.7746m  442.1755m 
 -442.07475m  531.2710n  699.9999m  547.8746m  442.0755m 
 -441.97475m  534.3290n  699.9999m  547.9746m  441.9755m 
 -441.87475m  537.4050n  699.9999m  548.0746m  441.8755m 
 -441.77475m  540.4990n  699.9999m  548.1746m  441.7755m 
 -441.67475m  543.6112n  699.9999m  548.2746m  441.6755m 
 -441.57475m  546.7417n  699.9999m  548.3746m  441.5755m 
 -441.47475m  549.8907n  699.9999m  548.4746m  441.4755m 
 -441.37475m  553.0581n  699.9999m  548.5746m  441.3755m 
 -441.27475m  556.2442n  699.9999m  548.6746m  441.2755m 
 -441.17475m  559.4490n  699.9999m  548.7746m  441.1755m 
 -441.07475m  562.6727n  699.9999m  548.8746m  441.0755m 
 -440.97475m  565.9153n  699.9999m  548.9746m  440.9755m 
 -440.87475m  569.1770n  699.9999m  549.0746m  440.8756m 
 -440.77475m  572.4579n  699.9999m  549.1746m  440.7756m 
 -440.67475m  575.7580n  699.9999m  549.2746m  440.6756m 
 -440.57475m  579.0776n  699.9999m  549.3746m  440.5756m 
 -440.47475m  582.4168n  699.9999m  549.4746m  440.4756m 
 -440.37475m  585.7755n  699.9999m  549.5746m  440.3756m 
 -440.27475m  589.1541n  699.9999m  549.6746m  440.2756m 
 -440.17475m  592.5525n  699.9999m  549.7746m  440.1756m 
 -440.07475m  595.9709n  699.9999m  549.8746m  440.0756m 
 -439.97475m  599.4095n  699.9999m  549.9746m  439.9756m 
 -439.87475m  602.8682n  699.9999m  550.0746m  439.8756m 
 -439.77475m  606.3474n  699.9999m  550.1745m  439.7756m 
 -439.67475m  609.8470n  699.9999m  550.2745m  439.6756m 
 -439.57475m  613.3672n  699.9999m  550.3745m  439.5756m 
 -439.47475m  616.9081n  699.9999m  550.4745m  439.4756m 
 -439.37475m  620.4699n  699.9999m  550.5745m  439.3756m 
 -439.27475m  624.0527n  699.9999m  550.6745m  439.2756m 
 -439.17475m  627.6565n  699.9999m  550.7745m  439.1756m 
 -439.07475m  631.2816n  699.9999m  550.8745m  439.0756m 
 -438.97475m  634.9281n  699.9999m  550.9745m  438.9756m 
 -438.87475m  638.5960n  699.9999m  551.0745m  438.8756m 
 -438.77475m  642.2855n  699.9999m  551.1745m  438.7757m 
 -438.67475m  645.9967n  699.9999m  551.2745m  438.6757m 
 -438.57475m  649.7298n  699.9999m  551.3745m  438.5757m 
 -438.47475m  653.4849n  699.9998m  551.4745m  438.4757m 
 -438.37475m  657.2621n  699.9998m  551.5745m  438.3757m 
 -438.27475m  661.0616n  699.9998m  551.6745m  438.2757m 
 -438.17475m  664.8834n  699.9998m  551.7745m  438.1757m 
 -438.07475m  668.7278n  699.9998m  551.8745m  438.0757m 
 -437.97475m  672.5948n  699.9998m  551.9745m  437.9757m 
 -437.87475m  676.4846n  699.9998m  552.0745m  437.8757m 
 -437.77475m  680.3974n  699.9998m  552.1745m  437.7757m 
 -437.67475m  684.3332n  699.9998m  552.2745m  437.6757m 
 -437.57475m  688.2922n  699.9998m  552.3745m  437.5757m 
 -437.47475m  692.2745n  699.9998m  552.4745m  437.4757m 
 -437.37475m  696.2803n  699.9998m  552.5745m  437.3757m 
 -437.27475m  700.3098n  699.9998m  552.6745m  437.2757m 
 -437.17475m  704.3629n  699.9998m  552.7745m  437.1757m 
 -437.07475m  708.4400n  699.9998m  552.8745m  437.0757m 
 -436.97475m  712.5412n  699.9998m  552.9745m  436.9758m 
 -436.87475m  716.6665n  699.9998m  553.0745m  436.8758m 
 -436.77475m  720.8161n  699.9998m  553.1745m  436.7758m 
 -436.67475m  724.9902n  699.9998m  553.2745m  436.6758m 
 -436.57475m  729.1889n  699.9998m  553.3745m  436.5758m 
 -436.47475m  733.4124n  699.9998m  553.4745m  436.4758m 
 -436.37475m  737.6608n  699.9998m  553.5745m  436.3758m 
 -436.27475m  741.9343n  699.9998m  553.6745m  436.2758m 
 -436.17475m  746.2330n  699.9998m  553.7745m  436.1758m 
 -436.07475m  750.5570n  699.9998m  553.8745m  436.0758m 
 -435.97475m  754.9066n  699.9998m  553.9745m  435.9758m 
 -435.87475m  759.2818n  699.9998m  554.0745m  435.8758m 
 -435.77475m  763.6828n  699.9998m  554.1745m  435.7758m 
 -435.67475m  768.1098n  699.9998m  554.2745m  435.6758m 
 -435.57475m  772.5630n  699.9998m  554.3745m  435.5758m 
 -435.47475m  777.0424n  699.9998m  554.4745m  435.4758m 
 -435.37475m  781.5482n  699.9998m  554.5745m  435.3759m 
 -435.27475m  786.0807n  699.9998m  554.6745m  435.2759m 
 -435.17475m  790.6399n  699.9998m  554.7745m  435.1759m 
 -435.07475m  795.2260n  699.9998m  554.8745m  435.0759m 
 -434.97475m  799.8393n  699.9998m  554.9745m  434.9759m 
 -434.87475m  804.4797n  699.9998m  555.0745m  434.8759m 
 -434.77475m  809.1475n  699.9998m  555.1745m  434.7759m 
 -434.67475m  813.8430n  699.9998m  555.2745m  434.6759m 
 -434.57475m  818.5661n  699.9998m  555.3745m  434.5759m 
 -434.47475m  823.3171n  699.9998m  555.4745m  434.4759m 
 -434.37475m  828.0962n  699.9998m  555.5745m  434.3759m 
 -434.27475m  832.9036n  699.9998m  555.6745m  434.2759m 
 -434.17475m  837.7393n  699.9998m  555.7745m  434.1759m 
 -434.07475m  842.6036n  699.9998m  555.8745m  434.0759m 
 -433.97475m  847.4966n  699.9998m  555.9745m  433.9759m 
 -433.87475m  852.4185n  699.9998m  556.0745m  433.8760m 
 -433.77475m  857.3696n  699.9998m  556.1745m  433.7760m 
 -433.67475m  862.3498n  699.9998m  556.2745m  433.6760m 
 -433.57475m  867.3595n  699.9998m  556.3745m  433.5760m 
 -433.47475m  872.3989n  699.9998m  556.4745m  433.4760m 
 -433.37475m  877.4679n  699.9998m  556.5745m  433.3760m 
 -433.27475m  882.5670n  699.9998m  556.6745m  433.2760m 
 -433.17475m  887.6962n  699.9998m  556.7745m  433.1760m 
 -433.07475m  892.8557n  699.9998m  556.8745m  433.0760m 
 -432.97475m  898.0457n  699.9998m  556.9745m  432.9760m 
 -432.87475m  903.2665n  699.9998m  557.0745m  432.8760m 
 -432.77475m  908.5180n  699.9998m  557.1745m  432.7760m 
 -432.67475m  913.8007n  699.9998m  557.2745m  432.6760m 
 -432.57475m  919.1145n  699.9998m  557.3745m  432.5760m 
 -432.47475m  924.4598n  699.9998m  557.4744m  432.4761m 
 -432.37475m  929.8367n  699.9998m  557.5744m  432.3761m 
 -432.27475m  935.2454n  699.9998m  557.6744m  432.2761m 
 -432.17475m  940.6861n  699.9998m  557.7744m  432.1761m 
 -432.07475m  946.1590n  699.9998m  557.8744m  432.0761m 
 -431.97475m  951.6642n  699.9998m  557.9744m  431.9761m 
 -431.87475m  957.2021n  699.9998m  558.0744m  431.8761m 
 -431.77475m  962.7727n  699.9998m  558.1744m  431.7761m 
 -431.67475m  968.3762n  699.9998m  558.2744m  431.6761m 
 -431.57475m  974.0129n  699.9998m  558.3744m  431.5761m 
 -431.47475m  979.6830n  699.9998m  558.4744m  431.4761m 
 -431.37475m  985.3866n  699.9998m  558.5744m  431.3761m 
 -431.27475m  991.1240n  699.9998m  558.6744m  431.2761m 
 -431.17475m  996.8953n  699.9998m  558.7744m  431.1762m 
 -431.07475m    1.0027u  699.9998m  558.8744m  431.0762m 
 -430.97475m    1.0085u  699.9998m  558.9744m  430.9762m 
 -430.87475m    1.0144u  699.9998m  559.0744m  430.8762m 
 -430.77475m    1.0203u  699.9998m  559.1744m  430.7762m 
 -430.67475m    1.0263u  699.9998m  559.2744m  430.6762m 
 -430.57475m    1.0322u  699.9998m  559.3744m  430.5762m 
 -430.47475m    1.0383u  699.9998m  559.4744m  430.4762m 
 -430.37475m    1.0443u  699.9998m  559.5744m  430.3762m 
 -430.27475m    1.0504u  699.9998m  559.6744m  430.2762m 
 -430.17475m    1.0565u  699.9998m  559.7744m  430.1762m 
 -430.07475m    1.0627u  699.9998m  559.8744m  430.0762m 
 -429.97475m    1.0689u  699.9998m  559.9744m  429.9763m 
 -429.87475m    1.0751u  699.9998m  560.0744m  429.8763m 
 -429.77475m    1.0814u  699.9998m  560.1744m  429.7763m 
 -429.67475m    1.0877u  699.9998m  560.2744m  429.6763m 
 -429.57475m    1.0940u  699.9998m  560.3744m  429.5763m 
 -429.47475m    1.1004u  699.9998m  560.4744m  429.4763m 
 -429.37475m    1.1068u  699.9997m  560.5744m  429.3763m 
 -429.27475m    1.1133u  699.9997m  560.6744m  429.2763m 
 -429.17475m    1.1198u  699.9997m  560.7744m  429.1763m 
 -429.07475m    1.1263u  699.9997m  560.8744m  429.0763m 
 -428.97475m    1.1329u  699.9997m  560.9744m  428.9763m 
 -428.87475m    1.1395u  699.9997m  561.0744m  428.8764m 
 -428.77475m    1.1461u  699.9997m  561.1744m  428.7764m 
 -428.67475m    1.1528u  699.9997m  561.2744m  428.6764m 
 -428.57475m    1.1596u  699.9997m  561.3744m  428.5764m 
 -428.47475m    1.1663u  699.9997m  561.4744m  428.4764m 
 -428.37475m    1.1731u  699.9997m  561.5744m  428.3764m 
 -428.27475m    1.1800u  699.9997m  561.6744m  428.2764m 
 -428.17475m    1.1869u  699.9997m  561.7744m  428.1764m 
 -428.07475m    1.1938u  699.9997m  561.8744m  428.0764m 
 -427.97475m    1.2008u  699.9997m  561.9744m  427.9764m 
 -427.87475m    1.2078u  699.9997m  562.0744m  427.8765m 
 -427.77475m    1.2149u  699.9997m  562.1744m  427.7765m 
 -427.67475m    1.2220u  699.9997m  562.2744m  427.6765m 
 -427.57475m    1.2291u  699.9997m  562.3744m  427.5765m 
 -427.47475m    1.2363u  699.9997m  562.4744m  427.4765m 
 -427.37475m    1.2435u  699.9997m  562.5744m  427.3765m 
 -427.27475m    1.2508u  699.9997m  562.6743m  427.2765m 
 -427.17475m    1.2581u  699.9997m  562.7743m  427.1765m 
 -427.07475m    1.2654u  699.9997m  562.8743m  427.0765m 
 -426.97475m    1.2728u  699.9997m  562.9743m  426.9765m 
 -426.87475m    1.2803u  699.9997m  563.0743m  426.8766m 
 -426.77475m    1.2878u  699.9997m  563.1743m  426.7766m 
 -426.67475m    1.2953u  699.9997m  563.2743m  426.6766m 
 -426.57475m    1.3029u  699.9997m  563.3743m  426.5766m 
 -426.47475m    1.3105u  699.9997m  563.4743m  426.4766m 
 -426.37475m    1.3181u  699.9997m  563.5743m  426.3766m 
 -426.27475m    1.3259u  699.9997m  563.6743m  426.2766m 
 -426.17475m    1.3336u  699.9997m  563.7743m  426.1766m 
 -426.07475m    1.3414u  699.9997m  563.8743m  426.0766m 
 -425.97475m    1.3493u  699.9997m  563.9743m  425.9767m 
 -425.87475m    1.3572u  699.9997m  564.0743m  425.8767m 
 -425.77475m    1.3651u  699.9997m  564.1743m  425.7767m 
 -425.67475m    1.3731u  699.9997m  564.2743m  425.6767m 
 -425.57475m    1.3811u  699.9997m  564.3743m  425.5767m 
 -425.47475m    1.3892u  699.9997m  564.4743m  425.4767m 
 -425.37475m    1.3973u  699.9997m  564.5743m  425.3767m 
 -425.27475m    1.4055u  699.9997m  564.6743m  425.2767m 
 -425.17475m    1.4137u  699.9997m  564.7743m  425.1767m 
 -425.07475m    1.4220u  699.9997m  564.8743m  425.0768m 
 -424.97475m    1.4304u  699.9997m  564.9743m  424.9768m 
 -424.87475m    1.4387u  699.9997m  565.0743m  424.8768m 
 -424.77475m    1.4472u  699.9997m  565.1743m  424.7768m 
 -424.67475m    1.4556u  699.9997m  565.2743m  424.6768m 
 -424.57475m    1.4642u  699.9997m  565.3743m  424.5768m 
 -424.47475m    1.4727u  699.9997m  565.4743m  424.4768m 
 -424.37475m    1.4814u  699.9997m  565.5743m  424.3768m 
 -424.27475m    1.4901u  699.9997m  565.6743m  424.2769m 
 -424.17475m    1.4988u  699.9997m  565.7743m  424.1769m 
 -424.07475m    1.5076u  699.9997m  565.8743m  424.0769m 
 -423.97475m    1.5164u  699.9997m  565.9743m  423.9769m 
 -423.87475m    1.5253u  699.9997m  566.0743m  423.8769m 
 -423.77475m    1.5342u  699.9997m  566.1743m  423.7769m 
 -423.67475m    1.5432u  699.9997m  566.2743m  423.6769m 
 -423.57475m    1.5523u  699.9997m  566.3743m  423.5769m 
 -423.47475m    1.5614u  699.9997m  566.4743m  423.4770m 
 -423.37475m    1.5705u  699.9996m  566.5742m  423.3770m 
 -423.27475m    1.5797u  699.9996m  566.6742m  423.2770m 
 -423.17475m    1.5890u  699.9996m  566.7742m  423.1770m 
 -423.07475m    1.5983u  699.9996m  566.8742m  423.0770m 
 -422.97475m    1.6077u  699.9996m  566.9742m  422.9770m 
 -422.87475m    1.6171u  699.9996m  567.0742m  422.8770m 
 -422.77475m    1.6266u  699.9996m  567.1742m  422.7770m 
 -422.67475m    1.6362u  699.9996m  567.2742m  422.6771m 
 -422.57475m    1.6458u  699.9996m  567.3742m  422.5771m 
 -422.47475m    1.6554u  699.9996m  567.4742m  422.4771m 
 -422.37475m    1.6652u  699.9996m  567.5742m  422.3771m 
 -422.27475m    1.6749u  699.9996m  567.6742m  422.2771m 
 -422.17475m    1.6848u  699.9996m  567.7742m  422.1771m 
 -422.07475m    1.6947u  699.9996m  567.8742m  422.0771m 
 -421.97475m    1.7046u  699.9996m  567.9742m  421.9772m 
 -421.87475m    1.7146u  699.9996m  568.0742m  421.8772m 
 -421.77475m    1.7247u  699.9996m  568.1742m  421.7772m 
 -421.67475m    1.7348u  699.9996m  568.2742m  421.6772m 
 -421.57475m    1.7450u  699.9996m  568.3742m  421.5772m 
 -421.47475m    1.7552u  699.9996m  568.4742m  421.4772m 
 -421.37475m    1.7656u  699.9996m  568.5742m  421.3772m 
 -421.27475m    1.7759u  699.9996m  568.6742m  421.2773m 
 -421.17475m    1.7864u  699.9996m  568.7742m  421.1773m 
 -421.07475m    1.7969u  699.9996m  568.8742m  421.0773m 
 -420.97475m    1.8074u  699.9996m  568.9742m  420.9773m 
 -420.87475m    1.8180u  699.9996m  569.0742m  420.8773m 
 -420.77475m    1.8287u  699.9996m  569.1742m  420.7773m 
 -420.67475m    1.8395u  699.9996m  569.2742m  420.6773m 
 -420.57475m    1.8503u  699.9996m  569.3742m  420.5774m 
 -420.47475m    1.8612u  699.9996m  569.4742m  420.4774m 
 -420.37475m    1.8721u  699.9996m  569.5742m  420.3774m 
 -420.27475m    1.8831u  699.9996m  569.6742m  420.2774m 
 -420.17475m    1.8942u  699.9996m  569.7742m  420.1774m 
 -420.07475m    1.9053u  699.9996m  569.8741m  420.0774m 
 -419.97475m    1.9165u  699.9996m  569.9741m  419.9775m 
 -419.87475m    1.9278u  699.9996m  570.0741m  419.8775m 
 -419.77475m    1.9391u  699.9996m  570.1741m  419.7775m 
 -419.67475m    1.9506u  699.9996m  570.2741m  419.6775m 
 -419.57475m    1.9620u  699.9996m  570.3741m  419.5775m 
 -419.47475m    1.9736u  699.9996m  570.4741m  419.4775m 
 -419.37475m    1.9852u  699.9996m  570.5741m  419.3776m 
 -419.27475m    1.9969u  699.9996m  570.6741m  419.2776m 
 -419.17475m    2.0086u  699.9996m  570.7741m  419.1776m 
 -419.07475m    2.0204u  699.9996m  570.8741m  419.0776m 
 -418.97475m    2.0323u  699.9995m  570.9741m  418.9776m 
 -418.87475m    2.0443u  699.9995m  571.0741m  418.8776m 
 -418.77475m    2.0563u  699.9995m  571.1741m  418.7777m 
 -418.67475m    2.0684u  699.9995m  571.2741m  418.6777m 
 -418.57475m    2.0806u  699.9995m  571.3741m  418.5777m 
 -418.47475m    2.0929u  699.9995m  571.4741m  418.4777m 
 -418.37475m    2.1052u  699.9995m  571.5741m  418.3777m 
 -418.27475m    2.1176u  699.9995m  571.6741m  418.2777m 
 -418.17475m    2.1301u  699.9995m  571.7741m  418.1778m 
 -418.07475m    2.1426u  699.9995m  571.8741m  418.0778m 
 -417.97475m    2.1552u  699.9995m  571.9741m  417.9778m 
 -417.87475m    2.1679u  699.9995m  572.0741m  417.8778m 
 -417.77475m    2.1807u  699.9995m  572.1741m  417.7778m 
 -417.67475m    2.1936u  699.9995m  572.2741m  417.6778m 
 -417.57475m    2.2065u  699.9995m  572.3741m  417.5779m 
 -417.47475m    2.2195u  699.9995m  572.4741m  417.4779m 
 -417.37475m    2.2326u  699.9995m  572.5740m  417.3779m 
 -417.27475m    2.2457u  699.9995m  572.6740m  417.2779m 
 -417.17475m    2.2590u  699.9995m  572.7740m  417.1779m 
 -417.07475m    2.2723u  699.9995m  572.8740m  417.0780m 
 -416.97475m    2.2857u  699.9995m  572.9740m  416.9780m 
 -416.87475m    2.2992u  699.9995m  573.0740m  416.8780m 
 -416.77475m    2.3127u  699.9995m  573.1740m  416.7780m 
 -416.67475m    2.3264u  699.9995m  573.2740m  416.6780m 
 -416.57475m    2.3401u  699.9995m  573.3740m  416.5781m 
 -416.47475m    2.3539u  699.9995m  573.4740m  416.4781m 
 -416.37475m    2.3678u  699.9995m  573.5740m  416.3781m 
 -416.27475m    2.3818u  699.9995m  573.6740m  416.2781m 
 -416.17475m    2.3958u  699.9995m  573.7740m  416.1781m 
 -416.07475m    2.4099u  699.9995m  573.8740m  416.0782m 
 -415.97475m    2.4242u  699.9995m  573.9740m  415.9782m 
 -415.87475m    2.4385u  699.9995m  574.0740m  415.8782m 
 -415.77475m    2.4529u  699.9995m  574.1740m  415.7782m 
 -415.67475m    2.4673u  699.9995m  574.2740m  415.6782m 
 -415.57475m    2.4819u  699.9995m  574.3740m  415.5783m 
 -415.47475m    2.4966u  699.9994m  574.4740m  415.4783m 
 -415.37475m    2.5113u  699.9994m  574.5740m  415.3783m 
 -415.27475m    2.5261u  699.9994m  574.6740m  415.2783m 
 -415.17475m    2.5410u  699.9994m  574.7740m  415.1783m 
 -415.07475m    2.5560u  699.9994m  574.8739m  415.0784m 
 -414.97475m    2.5711u  699.9994m  574.9739m  414.9784m 
 -414.87475m    2.5863u  699.9994m  575.0739m  414.8784m 
 -414.77475m    2.6016u  699.9994m  575.1739m  414.7784m 
 -414.67475m    2.6170u  699.9994m  575.2739m  414.6784m 
 -414.57475m    2.6324u  699.9994m  575.3739m  414.5785m 
 -414.47475m    2.6480u  699.9994m  575.4739m  414.4785m 
 -414.37475m    2.6636u  699.9994m  575.5739m  414.3785m 
 -414.27475m    2.6794u  699.9994m  575.6739m  414.2785m 
 -414.17475m    2.6952u  699.9994m  575.7739m  414.1786m 
 -414.07475m    2.7111u  699.9994m  575.8739m  414.0786m 
 -413.97475m    2.7272u  699.9994m  575.9739m  413.9786m 
 -413.87475m    2.7433u  699.9994m  576.0739m  413.8786m 
 -413.77475m    2.7595u  699.9994m  576.1739m  413.7786m 
 -413.67475m    2.7758u  699.9994m  576.2739m  413.6787m 
 -413.57475m    2.7922u  699.9994m  576.3739m  413.5787m 
 -413.47475m    2.8087u  699.9994m  576.4739m  413.4787m 
 -413.37475m    2.8253u  699.9994m  576.5739m  413.3787m 
 -413.27475m    2.8421u  699.9994m  576.6739m  413.2788m 
 -413.17475m    2.8589u  699.9994m  576.7739m  413.1788m 
 -413.07475m    2.8758u  699.9994m  576.8739m  413.0788m 
 -412.97475m    2.8928u  699.9994m  576.9738m  412.9788m 
 -412.87475m    2.9099u  699.9994m  577.0738m  412.8789m 
 -412.77475m    2.9271u  699.9994m  577.1738m  412.7789m 
 -412.67475m    2.9444u  699.9994m  577.2738m  412.6789m 
 -412.57475m    2.9619u  699.9993m  577.3738m  412.5789m 
 -412.47475m    2.9794u  699.9993m  577.4738m  412.4790m 
 -412.37475m    2.9970u  699.9993m  577.5738m  412.3790m 
 -412.27475m    3.0148u  699.9993m  577.6738m  412.2790m 
 -412.17475m    3.0326u  699.9993m  577.7738m  412.1790m 
 -412.07475m    3.0506u  699.9993m  577.8738m  412.0791m 
 -411.97475m    3.0686u  699.9993m  577.9738m  411.9791m 
 -411.87475m    3.0868u  699.9993m  578.0738m  411.8791m 
 -411.77475m    3.1051u  699.9993m  578.1738m  411.7791m 
 -411.67475m    3.1234u  699.9993m  578.2738m  411.6792m 
 -411.57475m    3.1419u  699.9993m  578.3738m  411.5792m 
 -411.47475m    3.1606u  699.9993m  578.4738m  411.4792m 
 -411.37475m    3.1793u  699.9993m  578.5738m  411.3792m 
 -411.27475m    3.1981u  699.9993m  578.6738m  411.2793m 
 -411.17475m    3.2171u  699.9993m  578.7737m  411.1793m 
 -411.07475m    3.2361u  699.9993m  578.8737m  411.0793m 
 -410.97475m    3.2553u  699.9993m  578.9737m  410.9794m 
 -410.87475m    3.2746u  699.9993m  579.0737m  410.8794m 
 -410.77475m    3.2940u  699.9993m  579.1737m  410.7794m 
 -410.67475m    3.3135u  699.9993m  579.2737m  410.6794m 
 -410.57475m    3.3331u  699.9993m  579.3737m  410.5795m 
 -410.47475m    3.3529u  699.9993m  579.4737m  410.4795m 
 -410.37475m    3.3728u  699.9993m  579.5737m  410.3795m 
 -410.27475m    3.3928u  699.9993m  579.6737m  410.2795m 
 -410.17475m    3.4129u  699.9993m  579.7737m  410.1796m 
 -410.07475m    3.4331u  699.9992m  579.8737m  410.0796m 
 -409.97475m    3.4535u  699.9992m  579.9737m  409.9796m 
 -409.87475m    3.4740u  699.9992m  580.0737m  409.8797m 
 -409.77475m    3.4946u  699.9992m  580.1737m  409.7797m 
 -409.67475m    3.5153u  699.9992m  580.2737m  409.6797m 
 -409.57475m    3.5361u  699.9992m  580.3737m  409.5797m 
 -409.47475m    3.5571u  699.9992m  580.4736m  409.4798m 
 -409.37475m    3.5782u  699.9992m  580.5736m  409.3798m 
 -409.27475m    3.5995u  699.9992m  580.6736m  409.2798m 
 -409.17475m    3.6208u  699.9992m  580.7736m  409.1799m 
 -409.07475m    3.6423u  699.9992m  580.8736m  409.0799m 
 -408.97475m    3.6639u  699.9992m  580.9736m  408.9799m 
 -408.87475m    3.6857u  699.9992m  581.0736m  408.8800m 
 -408.77475m    3.7075u  699.9992m  581.1736m  408.7800m 
 -408.67475m    3.7295u  699.9992m  581.2736m  408.6800m 
 -408.57475m    3.7517u  699.9992m  581.3736m  408.5801m 
 -408.47475m    3.7740u  699.9992m  581.4736m  408.4801m 
 -408.37475m    3.7964u  699.9992m  581.5736m  408.3801m 
 -408.27475m    3.8189u  699.9992m  581.6736m  408.2801m 
 -408.17475m    3.8416u  699.9992m  581.7736m  408.1802m 
 -408.07475m    3.8644u  699.9992m  581.8736m  408.0802m 
 -407.97475m    3.8874u  699.9992m  581.9735m  407.9802m 
 -407.87475m    3.9104u  699.9991m  582.0735m  407.8803m 
 -407.77475m    3.9337u  699.9991m  582.1735m  407.7803m 
 -407.67475m    3.9570u  699.9991m  582.2735m  407.6803m 
 -407.57475m    3.9806u  699.9991m  582.3735m  407.5804m 
 -407.47475m    4.0042u  699.9991m  582.4735m  407.4804m 
 -407.37475m    4.0280u  699.9991m  582.5735m  407.3804m 
 -407.27475m    4.0519u  699.9991m  582.6735m  407.2805m 
 -407.17475m    4.0760u  699.9991m  582.7735m  407.1805m 
 -407.07475m    4.1002u  699.9991m  582.8735m  407.0805m 
 -406.97475m    4.1246u  699.9991m  582.9735m  406.9806m 
 -406.87475m    4.1491u  699.9991m  583.0735m  406.8806m 
 -406.77475m    4.1738u  699.9991m  583.1735m  406.7806m 
 -406.67475m    4.1986u  699.9991m  583.2735m  406.6807m 
 -406.57475m    4.2236u  699.9991m  583.3734m  406.5807m 
 -406.47475m    4.2487u  699.9991m  583.4734m  406.4808m 
 -406.37475m    4.2740u  699.9991m  583.5734m  406.3808m 
 -406.27475m    4.2994u  699.9991m  583.6734m  406.2808m 
 -406.17475m    4.3250u  699.9991m  583.7734m  406.1809m 
 -406.07475m    4.3507u  699.9991m  583.8734m  406.0809m 
 -405.97475m    4.3766u  699.9990m  583.9734m  405.9809m 
 -405.87475m    4.4026u  699.9990m  584.0734m  405.8810m 
 -405.77475m    4.4288u  699.9990m  584.1734m  405.7810m 
 -405.67475m    4.4552u  699.9990m  584.2734m  405.6810m 
 -405.57475m    4.4817u  699.9990m  584.3734m  405.5811m 
 -405.47475m    4.5083u  699.9990m  584.4734m  405.4811m 
 -405.37475m    4.5352u  699.9990m  584.5734m  405.3812m 
 -405.27475m    4.5622u  699.9990m  584.6733m  405.2812m 
 -405.17475m    4.5893u  699.9990m  584.7733m  405.1812m 
 -405.07475m    4.6167u  699.9990m  584.8733m  405.0813m 
 -404.97475m    4.6441u  699.9990m  584.9733m  404.9813m 
 -404.87475m    4.6718u  699.9990m  585.0733m  404.8814m 
 -404.77475m    4.6996u  699.9990m  585.1733m  404.7814m 
 -404.67475m    4.7276u  699.9990m  585.2733m  404.6814m 
 -404.57475m    4.7558u  699.9990m  585.3733m  404.5815m 
 -404.47475m    4.7841u  699.9990m  585.4733m  404.4815m 
 -404.37475m    4.8126u  699.9990m  585.5733m  404.3816m 
 -404.27475m    4.8413u  699.9990m  585.6733m  404.2816m 
 -404.17475m    4.8701u  699.9989m  585.7733m  404.1816m 
 -404.07475m    4.8991u  699.9989m  585.8732m  404.0817m 
 -403.97475m    4.9283u  699.9989m  585.9732m  403.9817m 
 -403.87475m    4.9577u  699.9989m  586.0732m  403.8818m 
 -403.77475m    4.9872u  699.9989m  586.1732m  403.7818m 
 -403.67475m    5.0169u  699.9989m  586.2732m  403.6818m 
 -403.57475m    5.0468u  699.9989m  586.3732m  403.5819m 
 -403.47475m    5.0769u  699.9989m  586.4732m  403.4819m 
 -403.37475m    5.1072u  699.9989m  586.5732m  403.3820m 
 -403.27475m    5.1376u  699.9989m  586.6732m  403.2820m 
 -403.17475m    5.1683u  699.9989m  586.7732m  403.1821m 
 -403.07475m    5.1991u  699.9989m  586.8732m  403.0821m 
 -402.97475m    5.2301u  699.9989m  586.9731m  402.9821m 
 -402.87475m    5.2613u  699.9989m  587.0731m  402.8822m 
 -402.77475m    5.2927u  699.9989m  587.1731m  402.7822m 
 -402.67475m    5.3242u  699.9988m  587.2731m  402.6823m 
 -402.57475m    5.3560u  699.9988m  587.3731m  402.5823m 
 -402.47475m    5.3880u  699.9988m  587.4731m  402.4824m 
 -402.37475m    5.4201u  699.9988m  587.5731m  402.3824m 
 -402.27475m    5.4524u  699.9988m  587.6731m  402.2825m 
 -402.17475m    5.4850u  699.9988m  587.7731m  402.1825m 
 -402.07475m    5.5177u  699.9988m  587.8731m  402.0826m 
 -401.97475m    5.5506u  699.9988m  587.9731m  401.9826m 
 -401.87475m    5.5838u  699.9988m  588.0730m  401.8826m 
 -401.77475m    5.6171u  699.9988m  588.1730m  401.7827m 
 -401.67475m    5.6506u  699.9988m  588.2730m  401.6827m 
 -401.57475m    5.6844u  699.9988m  588.3730m  401.5828m 
 -401.47475m    5.7183u  699.9988m  588.4730m  401.4828m 
 -401.37475m    5.7524u  699.9988m  588.5730m  401.3829m 
 -401.27475m    5.7868u  699.9988m  588.6730m  401.2829m 
 -401.17475m    5.8214u  699.9987m  588.7730m  401.1830m 
 -401.07475m    5.8561u  699.9987m  588.8730m  401.0830m 
 -400.97475m    5.8911u  699.9987m  588.9730m  400.9831m 
 -400.87475m    5.9263u  699.9987m  589.0729m  400.8831m 
 -400.77475m    5.9617u  699.9987m  589.1729m  400.7832m 
 -400.67475m    5.9973u  699.9987m  589.2729m  400.6832m 
 -400.57475m    6.0331u  699.9987m  589.3729m  400.5833m 
 -400.47475m    6.0692u  699.9987m  589.4729m  400.4833m 
 -400.37475m    6.1055u  699.9987m  589.5729m  400.3834m 
 -400.27475m    6.1420u  699.9987m  589.6729m  400.2834m 
 -400.17475m    6.1787u  699.9987m  589.7729m  400.1835m 
 -400.07475m    6.2156u  699.9987m  589.8729m  400.0835m 
 -399.97475m    6.2528u  699.9987m  589.9728m  399.9836m 
 -399.87475m    6.2901u  699.9986m  590.0728m  399.8836m 
 -399.77475m    6.3277u  699.9986m  590.1728m  399.7837m 
 -399.67475m    6.3656u  699.9986m  590.2728m  399.6837m 
 -399.57475m    6.4036u  699.9986m  590.3728m  399.5838m 
 -399.47475m    6.4419u  699.9986m  590.4728m  399.4839m 
 -399.37475m    6.4805u  699.9986m  590.5728m  399.3839m 
 -399.27475m    6.5192u  699.9986m  590.6728m  399.2840m 
 -399.17475m    6.5582u  699.9986m  590.7728m  399.1840m 
 -399.07475m    6.5975u  699.9986m  590.8727m  399.0841m 
 -398.97475m    6.6369u  699.9986m  590.9727m  398.9841m 
 -398.87475m    6.6766u  699.9986m  591.0727m  398.8842m 
 -398.77475m    6.7166u  699.9986m  591.1727m  398.7842m 
 -398.67475m    6.7568u  699.9985m  591.2727m  398.6843m 
 -398.57475m    6.7972u  699.9985m  591.3727m  398.5844m 
 -398.47475m    6.8379u  699.9985m  591.4727m  398.4844m 
 -398.37475m    6.8788u  699.9985m  591.5727m  398.3845m 
 -398.27475m    6.9200u  699.9985m  591.6726m  398.2845m 
 -398.17475m    6.9614u  699.9985m  591.7726m  398.1846m 
 -398.07475m    7.0031u  699.9985m  591.8726m  398.0847m 
 -397.97475m    7.0450u  699.9985m  591.9726m  397.9847m 
 -397.87475m    7.0872u  699.9985m  592.0726m  397.8848m 
 -397.77475m    7.1297u  699.9985m  592.1726m  397.7848m 
 -397.67475m    7.1724u  699.9985m  592.2726m  397.6849m 
 -397.57475m    7.2153u  699.9985m  592.3726m  397.5850m 
 -397.47475m    7.2585u  699.9984m  592.4725m  397.4850m 
 -397.37475m    7.3020u  699.9984m  592.5725m  397.3851m 
 -397.27475m    7.3458u  699.9984m  592.6725m  397.2851m 
 -397.17475m    7.3898u  699.9984m  592.7725m  397.1852m 
 -397.07475m    7.4340u  699.9984m  592.8725m  397.0853m 
 -396.97475m    7.4786u  699.9984m  592.9725m  396.9853m 
 -396.87475m    7.5234u  699.9984m  593.0725m  396.8854m 
 -396.77475m    7.5685u  699.9984m  593.1725m  396.7855m 
 -396.67475m    7.6139u  699.9984m  593.2724m  396.6855m 
 -396.57475m    7.6595u  699.9984m  593.3724m  396.5856m 
 -396.47475m    7.7054u  699.9984m  593.4724m  396.4856m 
 -396.37475m    7.7516u  699.9983m  593.5724m  396.3857m 
 -396.27475m    7.7981u  699.9983m  593.6724m  396.2858m 
 -396.17475m    7.8448u  699.9983m  593.7724m  396.1858m 
 -396.07475m    7.8919u  699.9983m  593.8724m  396.0859m 
 -395.97475m    7.9392u  699.9983m  593.9723m  395.9860m 
 -395.87475m    7.9868u  699.9983m  594.0723m  395.8860m 
 -395.77475m    8.0347u  699.9983m  594.1723m  395.7861m 
 -395.67475m    8.0829u  699.9983m  594.2723m  395.6862m 
 -395.57475m    8.1314u  699.9983m  594.3723m  395.5862m 
 -395.47475m    8.1802u  699.9983m  594.4723m  395.4863m 
 -395.37475m    8.2293u  699.9982m  594.5723m  395.3864m 
 -395.27475m    8.2787u  699.9982m  594.6722m  395.2865m 
 -395.17475m    8.3284u  699.9982m  594.7722m  395.1865m 
 -395.07475m    8.3783u  699.9982m  594.8722m  395.0866m 
 -394.97475m    8.4286u  699.9982m  594.9722m  394.9867m 
 -394.87475m    8.4792u  699.9982m  595.0722m  394.8867m 
 -394.77475m    8.5301u  699.9982m  595.1722m  394.7868m 
 -394.67475m    8.5813u  699.9982m  595.2722m  394.6869m 
 -394.57475m    8.6328u  699.9982m  595.3721m  394.5870m 
 -394.47475m    8.6847u  699.9981m  595.4721m  394.4870m 
 -394.37475m    8.7368u  699.9981m  595.5721m  394.3871m 
 -394.27475m    8.7893u  699.9981m  595.6721m  394.2872m 
 -394.17475m    8.8421u  699.9981m  595.7721m  394.1873m 
 -394.07475m    8.8952u  699.9981m  595.8721m  394.0873m 
 -393.97475m    8.9486u  699.9981m  595.9721m  393.9874m 
 -393.87475m    9.0024u  699.9981m  596.0720m  393.8875m 
 -393.77475m    9.0565u  699.9981m  596.1720m  393.7876m 
 -393.67475m    9.1109u  699.9981m  596.2720m  393.6876m 
 -393.57475m    9.1656u  699.9980m  596.3720m  393.5877m 
 -393.47475m    9.2207u  699.9980m  596.4720m  393.4878m 
 -393.37475m    9.2761u  699.9980m  596.5720m  393.3879m 
 -393.27475m    9.3319u  699.9980m  596.6719m  393.2879m 
 -393.17475m    9.3880u  699.9980m  596.7719m  393.1880m 
 -393.07475m    9.4444u  699.9980m  596.8719m  393.0881m 
 -392.97475m    9.5012u  699.9980m  596.9719m  392.9882m 
 -392.87475m    9.5583u  699.9980m  597.0719m  392.8883m 
 -392.77475m    9.6158u  699.9980m  597.1719m  392.7883m 
 -392.67475m    9.6736u  699.9979m  597.2718m  392.6884m 
 -392.57475m    9.7317u  699.9979m  597.3718m  392.5885m 
 -392.47475m    9.7903u  699.9979m  597.4718m  392.4886m 
 -392.37475m    9.8492u  699.9979m  597.5718m  392.3887m 
 -392.27475m    9.9084u  699.9979m  597.6718m  392.2888m 
 -392.17475m    9.9680u  699.9979m  597.7718m  392.1888m 
 -392.07475m   10.0280u  699.9979m  597.8717m  392.0889m 
 -391.97475m   10.0883u  699.9979m  597.9717m  391.9890m 
 -391.87475m   10.1490u  699.9978m  598.0717m  391.8891m 
 -391.77475m   10.2101u  699.9978m  598.1717m  391.7892m 
 -391.67475m   10.2715u  699.9978m  598.2717m  391.6893m 
 -391.57475m   10.3333u  699.9978m  598.3716m  391.5894m 
 -391.47475m   10.3955u  699.9978m  598.4716m  391.4894m 
 -391.37475m   10.4581u  699.9978m  598.5716m  391.3895m 
 -391.27475m   10.5211u  699.9978m  598.6716m  391.2896m 
 -391.17475m   10.5844u  699.9978m  598.7716m  391.1897m 
 -391.07475m   10.6481u  699.9977m  598.8716m  391.0898m 
 -390.97475m   10.7123u  699.9977m  598.9715m  390.9899m 
 -390.87475m   10.7768u  699.9977m  599.0715m  390.8900m 
 -390.77475m   10.8417u  699.9977m  599.1715m  390.7901m 
 -390.67475m   10.9070u  699.9977m  599.2715m  390.6902m 
 -390.57475m   10.9727u  699.9977m  599.3715m  390.5903m 
 -390.47475m   11.0388u  699.9977m  599.4714m  390.4904m 
 -390.37475m   11.1053u  699.9977m  599.5714m  390.3905m 
 -390.27475m   11.1722u  699.9976m  599.6714m  390.2905m 
 -390.17475m   11.2395u  699.9976m  599.7714m  390.1906m 
 -390.07475m   11.3072u  699.9976m  599.8714m  390.0907m 
 -389.97475m   11.3753u  699.9976m  599.9713m  389.9908m 
 -389.87475m   11.4439u  699.9976m  600.0713m  389.8909m 
 -389.77475m   11.5129u  699.9976m  600.1713m  389.7910m 
 -389.67475m   11.5823u  699.9976m  600.2713m  389.6911m 
 -389.57475m   11.6521u  699.9975m  600.3713m  389.5912m 
 -389.47475m   11.7223u  699.9975m  600.4712m  389.4913m 
 -389.37475m   11.7930u  699.9975m  600.5712m  389.3914m 
 -389.27475m   11.8641u  699.9975m  600.6712m  389.2915m 
 -389.17475m   11.9357u  699.9975m  600.7712m  389.1916m 
 -389.07475m   12.0076u  699.9975m  600.8712m  389.0917m 
 -388.97475m   12.0801u  699.9975m  600.9711m  388.9918m 
 -388.87475m   12.1529u  699.9974m  601.0711m  388.8919m 
 -388.77475m   12.2262u  699.9974m  601.1711m  388.7920m 
 -388.67475m   12.3000u  699.9974m  601.2711m  388.6921m 
 -388.57475m   12.3742u  699.9974m  601.3711m  388.5922m 
 -388.47475m   12.4489u  699.9974m  601.4710m  388.4924m 
 -388.37475m   12.5240u  699.9974m  601.5710m  388.3925m 
 -388.27475m   12.5996u  699.9973m  601.6710m  388.2926m 
 -388.17475m   12.6756u  699.9973m  601.7710m  388.1927m 
 -388.07475m   12.7521u  699.9973m  601.8709m  388.0928m 
 -387.97475m   12.8291u  699.9973m  601.9709m  387.9929m 
 -387.87475m   12.9065u  699.9973m  602.0709m  387.8930m 
 -387.77475m   12.9844u  699.9973m  602.1709m  387.7931m 
 -387.67475m   13.0628u  699.9972m  602.2709m  387.6932m 
 -387.57475m   13.1417u  699.9972m  602.3708m  387.5933m 
 -387.47475m   13.2211u  699.9972m  602.4708m  387.4934m 
 -387.37475m   13.3009u  699.9972m  602.5708m  387.3936m 
 -387.27475m   13.3812u  699.9972m  602.6708m  387.2937m 
 -387.17475m   13.4621u  699.9972m  602.7707m  387.1938m 
 -387.07475m   13.5434u  699.9972m  602.8707m  387.0939m 
 -386.97475m   13.6252u  699.9971m  602.9707m  386.9940m 
 -386.87475m   13.7075u  699.9971m  603.0707m  386.8941m 
 -386.77475m   13.7903u  699.9971m  603.1706m  386.7942m 
 -386.67475m   13.8736u  699.9971m  603.2706m  386.6944m 
 -386.57475m   13.9575u  699.9971m  603.3706m  386.5945m 
 -386.47475m   14.0418u  699.9971m  603.4706m  386.4946m 
 -386.37475m   14.1267u  699.9970m  603.5706m  386.3947m 
 -386.27475m   14.2121u  699.9970m  603.6705m  386.2948m 
 -386.17475m   14.2980u  699.9970m  603.7705m  386.1950m 
 -386.07475m   14.3844u  699.9970m  603.8705m  386.0951m 
 -385.97475m   14.4714u  699.9970m  603.9705m  385.9952m 
 -385.87475m   14.5589u  699.9969m  604.0704m  385.8953m 
 -385.77475m   14.6469u  699.9969m  604.1704m  385.7955m 
 -385.67475m   14.7355u  699.9969m  604.2704m  385.6956m 
 -385.57475m   14.8246u  699.9969m  604.3703m  385.5957m 
 -385.47475m   14.9143u  699.9969m  604.4703m  385.4958m 
 -385.37475m   15.0045u  699.9969m  604.5703m  385.3960m 
 -385.27475m   15.0953u  699.9968m  604.6703m  385.2961m 
 -385.17475m   15.1866u  699.9968m  604.7702m  385.1962m 
 -385.07475m   15.2785u  699.9968m  604.8702m  385.0964m 
 -384.97475m   15.3709u  699.9968m  604.9702m  384.9965m 
 -384.87475m   15.4639u  699.9968m  605.0702m  384.8966m 
 -384.77475m   15.5575u  699.9967m  605.1701m  384.7967m 
 -384.67475m   15.6517u  699.9967m  605.2701m  384.6969m 
 -384.57475m   15.7464u  699.9967m  605.3701m  384.5970m 
 -384.47475m   15.8417u  699.9967m  605.4701m  384.4972m 
 -384.37475m   15.9376u  699.9967m  605.5700m  384.3973m 
 -384.27475m   16.0341u  699.9966m  605.6700m  384.2974m 
 -384.17475m   16.1312u  699.9966m  605.7700m  384.1976m 
 -384.07475m   16.2289u  699.9966m  605.8699m  384.0977m 
 -383.97475m   16.3271u  699.9966m  605.9699m  383.9978m 
 -383.87475m   16.4260u  699.9966m  606.0699m  383.8980m 
 -383.77475m   16.5255u  699.9965m  606.1699m  383.7981m 
 -383.67475m   16.6256u  699.9965m  606.2698m  383.6983m 
 -383.57475m   16.7263u  699.9965m  606.3698m  383.5984m 
 -383.47475m   16.8277u  699.9965m  606.4698m  383.4985m 
 -383.37475m   16.9296u  699.9965m  606.5697m  383.3987m 
 -383.27475m   17.0322u  699.9964m  606.6697m  383.2988m 
 -383.17475m   17.1354u  699.9964m  606.7697m  383.1990m 
 -383.07475m   17.2392u  699.9964m  606.8697m  383.0991m 
 -382.97475m   17.3437u  699.9964m  606.9696m  382.9993m 
 -382.87475m   17.4488u  699.9964m  607.0696m  382.8994m 
 -382.77475m   17.5546u  699.9963m  607.1696m  382.7996m 
 -382.67475m   17.6610u  699.9963m  607.2695m  382.6997m 
 -382.57475m   17.7681u  699.9963m  607.3695m  382.5999m 
 -382.47475m   17.8758u  699.9963m  607.4695m  382.5000m 
 -382.37475m   17.9842u  699.9963m  607.5694m  382.4002m 
 -382.27475m   18.0933u  699.9962m  607.6694m  382.3003m 
 -382.17475m   18.2030u  699.9962m  607.7694m  382.2005m 
 -382.07475m   18.3134u  699.9962m  607.8693m  382.1006m 
 -381.97475m   18.4245u  699.9962m  607.9693m  382.0008m 
 -381.87475m   18.5362u  699.9961m  608.0693m  381.9010m 
 -381.77475m   18.6487u  699.9961m  608.1693m  381.8011m 
 -381.67475m   18.7618u  699.9961m  608.2692m  381.7013m 
 -381.57475m   18.8757u  699.9961m  608.3692m  381.6014m 
 -381.47475m   18.9902u  699.9960m  608.4692m  381.5016m 
 -381.37475m   19.1054u  699.9960m  608.5691m  381.4018m 
 -381.27475m   19.2214u  699.9960m  608.6691m  381.3019m 
 -381.17475m   19.3381u  699.9960m  608.7691m  381.2021m 
 -381.07475m   19.4554u  699.9960m  608.8690m  381.1023m 
 -380.97475m   19.5735u  699.9959m  608.9690m  381.0024m 
 -380.87475m   19.6924u  699.9959m  609.0690m  380.9026m 
 -380.77475m   19.8119u  699.9959m  609.1689m  380.8028m 
 -380.67475m   19.9322u  699.9959m  609.2689m  380.7029m 
 -380.57475m   20.0533u  699.9958m  609.3689m  380.6031m 
 -380.47475m   20.1750u  699.9958m  609.4688m  380.5033m 
 -380.37475m   20.2976u  699.9958m  609.5688m  380.4035m 
 -380.27475m   20.4209u  699.9958m  609.6687m  380.3036m 
 -380.17475m   20.5449u  699.9957m  609.7687m  380.2038m 
 -380.07475m   20.6697u  699.9957m  609.8687m  380.1040m 
 -379.97475m   20.7953u  699.9957m  609.9686m  380.0042m 
 -379.87475m   20.9216u  699.9957m  610.0686m  379.9043m 
 -379.77475m   21.0488u  699.9956m  610.1686m  379.8045m 
 -379.67475m   21.1767u  699.9956m  610.2685m  379.7047m 
 -379.57475m   21.3054u  699.9956m  610.3685m  379.6049m 
 -379.47475m   21.4349u  699.9956m  610.4685m  379.5051m 
 -379.37475m   21.5652u  699.9955m  610.5684m  379.4052m 
 -379.27475m   21.6962u  699.9955m  610.6684m  379.3054m 
 -379.17475m   21.8281u  699.9955m  610.7683m  379.2056m 
 -379.07475m   21.9608u  699.9954m  610.8683m  379.1058m 
 -378.97475m   22.0944u  699.9954m  610.9683m  379.0060m 
 -378.87475m   22.2287u  699.9954m  611.0682m  378.9062m 
 -378.77475m   22.3639u  699.9954m  611.1682m  378.8064m 
 -378.67475m   22.4999u  699.9953m  611.2682m  378.7066m 
 -378.57475m   22.6368u  699.9953m  611.3681m  378.6068m 
 -378.47475m   22.7745u  699.9953m  611.4681m  378.5070m 
 -378.37475m   22.9130u  699.9953m  611.5680m  378.4072m 
 -378.27475m   23.0524u  699.9952m  611.6680m  378.3073m 
 -378.17475m   23.1927u  699.9952m  611.7680m  378.2075m 
 -378.07475m   23.3338u  699.9952m  611.8679m  378.1077m 
 -377.97475m   23.4758u  699.9951m  611.9679m  378.0079m 
 -377.87475m   23.6186u  699.9951m  612.0678m  377.9081m 
 -377.77475m   23.7624u  699.9951m  612.1678m  377.8084m 
 -377.67475m   23.9070u  699.9951m  612.2678m  377.7086m 
 -377.57475m   24.0525u  699.9950m  612.3677m  377.6088m 
 -377.47475m   24.1990u  699.9950m  612.4677m  377.5090m 
 -377.37475m   24.3463u  699.9950m  612.5676m  377.4092m 
 -377.27475m   24.4945u  699.9949m  612.6676m  377.3094m 
 -377.17475m   24.6437u  699.9949m  612.7675m  377.2096m 
 -377.07475m   24.7938u  699.9949m  612.8675m  377.1098m 
 -376.97475m   24.9448u  699.9949m  612.9675m  377.0100m 
 -376.87475m   25.0967u  699.9948m  613.0674m  376.9102m 
 -376.77475m   25.2496u  699.9948m  613.1674m  376.8105m 
 -376.67475m   25.4034u  699.9948m  613.2673m  376.7107m 
 -376.57475m   25.5581u  699.9947m  613.3673m  376.6109m 
 -376.47475m   25.7138u  699.9947m  613.4672m  376.5111m 
 -376.37475m   25.8705u  699.9947m  613.5672m  376.4113m 
 -376.27475m   26.0282u  699.9946m  613.6672m  376.3116m 
 -376.17475m   26.1868u  699.9946m  613.7671m  376.2118m 
 -376.07475m   26.3464u  699.9946m  613.8671m  376.1120m 
 -375.97475m   26.5070u  699.9945m  613.9670m  376.0122m 
 -375.87475m   26.6685u  699.9945m  614.0670m  375.9125m 
 -375.77475m   26.8311u  699.9945m  614.1669m  375.8127m 
 -375.67475m   26.9947u  699.9944m  614.2669m  375.7129m 
 -375.57475m   27.1593u  699.9944m  614.3668m  375.6132m 
 -375.47475m   27.3249u  699.9944m  614.4668m  375.5134m 
 -375.37475m   27.4915u  699.9943m  614.5667m  375.4136m 
 -375.27475m   27.6592u  699.9943m  614.6667m  375.3139m 
 -375.17475m   27.8279u  699.9943m  614.7666m  375.2141m 
 -375.07475m   27.9976u  699.9942m  614.8666m  375.1143m 
 -374.97475m   28.1684u  699.9942m  614.9666m  375.0146m 
 -374.87475m   28.3402u  699.9942m  615.0665m  374.9148m 
 -374.77475m   28.5131u  699.9941m  615.1665m  374.8151m 
 -374.67475m   28.6871u  699.9941m  615.2664m  374.7153m 
 -374.57475m   28.8621u  699.9941m  615.3664m  374.6156m 
 -374.47475m   29.0383u  699.9940m  615.4663m  374.5158m 
 -374.37475m   29.2155u  699.9940m  615.5663m  374.4161m 
 -374.27475m   29.3938u  699.9940m  615.6662m  374.3163m 
 -374.17475m   29.5732u  699.9939m  615.7662m  374.2166m 
 -374.07475m   29.7538u  699.9939m  615.8661m  374.1168m 
 -373.97475m   29.9354u  699.9939m  615.9661m  374.0171m 
 -373.87475m   30.1182u  699.9938m  616.0660m  373.9173m 
 -373.77475m   30.3021u  699.9938m  616.1660m  373.8176m 
 -373.67475m   30.4871u  699.9937m  616.2659m  373.7179m 
 -373.57475m   30.6733u  699.9937m  616.3658m  373.6181m 
 -373.47475m   30.8606u  699.9937m  616.4658m  373.5184m 
 -373.37475m   31.0491u  699.9936m  616.5657m  373.4187m 
 -373.27475m   31.2388u  699.9936m  616.6657m  373.3189m 
 -373.17475m   31.4296u  699.9936m  616.7656m  373.2192m 
 -373.07475m   31.6216u  699.9935m  616.8656m  373.1195m 
 -372.97475m   31.8148u  699.9935m  616.9655m  373.0197m 
 -372.87475m   32.0092u  699.9934m  617.0655m  372.9200m 
 -372.77475m   32.2048u  699.9934m  617.1654m  372.8203m 
 -372.67475m   32.4016u  699.9934m  617.2654m  372.7206m 
 -372.57475m   32.5997u  699.9933m  617.3653m  372.6208m 
 -372.47475m   32.7989u  699.9933m  617.4653m  372.5211m 
 -372.37475m   32.9994u  699.9932m  617.5652m  372.4214m 
 -372.27475m   33.2012u  699.9932m  617.6651m  372.3217m 
 -372.17475m   33.4041u  699.9932m  617.7651m  372.2220m 
 -372.07475m   33.6084u  699.9931m  617.8650m  372.1223m 
 -371.97475m   33.8139u  699.9931m  617.9650m  372.0226m 
 -371.87475m   34.0207u  699.9930m  618.0649m  371.9229m 
 -371.77475m   34.2287u  699.9930m  618.1649m  371.8232m 
 -371.67475m   34.4381u  699.9930m  618.2648m  371.7234m 
 -371.57475m   34.6487u  699.9929m  618.3647m  371.6237m 
 -371.47475m   34.8607u  699.9929m  618.4647m  371.5240m 
 -371.37475m   35.0740u  699.9928m  618.5646m  371.4243m 
 -371.27475m   35.2885u  699.9928m  618.6646m  371.3247m 
 -371.17475m   35.5045u  699.9927m  618.7645m  371.2250m 
 -371.07475m   35.7217u  699.9927m  618.8644m  371.1253m 
 -370.97475m   35.9403u  699.9927m  618.9644m  371.0256m 
 -370.87475m   36.1603u  699.9926m  619.0643m  370.9259m 
 -370.77475m   36.3816u  699.9926m  619.1642m  370.8262m 
 -370.67475m   36.6043u  699.9925m  619.2642m  370.7265m 
 -370.57475m   36.8284u  699.9925m  619.3641m  370.6268m 
 -370.47475m   37.0539u  699.9924m  619.4641m  370.5271m 
 -370.37475m   37.2807u  699.9924m  619.5640m  370.4275m 
 -370.27475m   37.5090u  699.9924m  619.6639m  370.3278m 
 -370.17475m   37.7387u  699.9923m  619.7639m  370.2281m 
 -370.07475m   37.9698u  699.9923m  619.8638m  370.1284m 
 -369.97475m   38.2024u  699.9922m  619.9637m  370.0288m 
 -369.87475m   38.4364u  699.9922m  620.0637m  369.9291m 
 -369.77475m   38.6718u  699.9921m  620.1636m  369.8294m 
 -369.67475m   38.9087u  699.9921m  620.2635m  369.7298m 
 -369.57475m   39.1471u  699.9920m  620.3635m  369.6301m 
 -369.47475m   39.3869u  699.9920m  620.4634m  369.5304m 
 -369.37475m   39.6283u  699.9919m  620.5633m  369.4308m 
 -369.27475m   39.8711u  699.9919m  620.6633m  369.3311m 
 -369.17475m   40.1155u  699.9918m  620.7632m  369.2315m 
 -369.07475m   40.3613u  699.9918m  620.8631m  369.1318m 
 -368.97475m   40.6087u  699.9917m  620.9631m  369.0322m 
 -368.87475m   40.8577u  699.9917m  621.0630m  368.9325m 
 -368.77475m   41.1081u  699.9916m  621.1629m  368.8329m 
 -368.67475m   41.3602u  699.9916m  621.2629m  368.7332m 
 -368.57475m   41.6138u  699.9915m  621.3628m  368.6336m 
 -368.47475m   41.8689u  699.9915m  621.4627m  368.5340m 
 -368.37475m   42.1257u  699.9914m  621.5626m  368.4343m 
 -368.27475m   42.3840u  699.9914m  621.6626m  368.3347m 
 -368.17475m   42.6440u  699.9913m  621.7625m  368.2351m 
 -368.07475m   42.9056u  699.9913m  621.8624m  368.1354m 
 -367.97475m   43.1688u  699.9912m  621.9624m  368.0358m 
 -367.87475m   43.4336u  699.9912m  622.0623m  367.9362m 
 -367.77475m   43.7001u  699.9911m  622.1622m  367.8365m 
 -367.67475m   43.9682u  699.9911m  622.2621m  367.7369m 
 -367.57475m   44.2380u  699.9910m  622.3621m  367.6373m 
 -367.47475m   44.5095u  699.9910m  622.4620m  367.5377m 
 -367.37475m   44.7827u  699.9909m  622.5619m  367.4381m 
 -367.27475m   45.0575u  699.9909m  622.6618m  367.3385m 
 -367.17475m   45.3341u  699.9908m  622.7618m  367.2389m 
 -367.07475m   45.6124u  699.9908m  622.8617m  367.1393m 
 -366.97475m   45.8924u  699.9907m  622.9616m  367.0396m 
 -366.87475m   46.1742u  699.9906m  623.0615m  366.9400m 
 -366.77475m   46.4577u  699.9906m  623.1614m  366.8404m 
 -366.67475m   46.7430u  699.9905m  623.2614m  366.7409m 
 -366.57475m   47.0301u  699.9905m  623.3613m  366.6413m 
 -366.47475m   47.3189u  699.9904m  623.4612m  366.5417m 
 -366.37475m   47.6095u  699.9904m  623.5611m  366.4421m 
 -366.27475m   47.9020u  699.9903m  623.6610m  366.3425m 
 -366.17475m   48.1963u  699.9903m  623.7610m  366.2429m 
 -366.07475m   48.4924u  699.9902m  623.8609m  366.1433m 
 -365.97475m   48.7903u  699.9901m  623.9608m  366.0437m 
 -365.87475m   49.0901u  699.9901m  624.0607m  365.9442m 
 -365.77475m   49.3917u  699.9900m  624.1606m  365.8446m 
 -365.67475m   49.6953u  699.9900m  624.2605m  365.7450m 
 -365.57475m   50.0007u  699.9899m  624.3605m  365.6455m 
 -365.47475m   50.3080u  699.9898m  624.4604m  365.5459m 
 -365.37475m   50.6173u  699.9898m  624.5603m  365.4463m 
 -365.27475m   50.9285u  699.9897m  624.6602m  365.3468m 
 -365.17475m   51.2416u  699.9897m  624.7601m  365.2472m 
 -365.07475m   51.5566u  699.9896m  624.8600m  365.1477m 
 -364.97475m   51.8736u  699.9895m  624.9599m  365.0481m 
 -364.87475m   52.1926u  699.9895m  625.0599m  364.9486m 
 -364.77475m   52.5136u  699.9894m  625.1598m  364.8490m 
 -364.67475m   52.8366u  699.9893m  625.2597m  364.7495m 
 -364.57475m   53.1616u  699.9893m  625.3596m  364.6499m 
 -364.47475m   53.4886u  699.9892m  625.4595m  364.5504m 
 -364.37475m   53.8176u  699.9891m  625.5594m  364.4509m 
 -364.27475m   54.1487u  699.9891m  625.6593m  364.3513m 
 -364.17475m   54.4819u  699.9890m  625.7592m  364.2518m 
 -364.07475m   54.8171u  699.9890m  625.8591m  364.1523m 
 -363.97475m   55.1545u  699.9889m  625.9590m  364.0527m 
 -363.87475m   55.4939u  699.9888m  626.0589m  363.9532m 
 -363.77475m   55.8355u  699.9888m  626.1588m  363.8537m 
 -363.67475m   56.1791u  699.9887m  626.2588m  363.7542m 
 -363.57475m   56.5250u  699.9886m  626.3587m  363.6547m 
 -363.47475m   56.8729u  699.9886m  626.4586m  363.5552m 
 -363.37475m   57.2231u  699.9885m  626.5585m  363.4557m 
 -363.27475m   57.5754u  699.9884m  626.6584m  363.3562m 
 -363.17475m   57.9299u  699.9883m  626.7583m  363.2567m 
 -363.07475m   58.2867u  699.9883m  626.8582m  363.1572m 
 -362.97475m   58.6456u  699.9882m  626.9581m  363.0577m 
 -362.87475m   59.0068u  699.9881m  627.0580m  362.9582m 
 -362.77475m   59.3703u  699.9881m  627.1579m  362.8587m 
 -362.67475m   59.7360u  699.9880m  627.2578m  362.7592m 
 -362.57475m   60.1040u  699.9879m  627.3577m  362.6597m 
 -362.47475m   60.4743u  699.9879m  627.4576m  362.5603m 
 -362.37475m   60.8469u  699.9878m  627.5575m  362.4608m 
 -362.27475m   61.2218u  699.9877m  627.6574m  362.3613m 
 -362.17475m   61.5991u  699.9876m  627.7573m  362.2619m 
 -362.07475m   61.9787u  699.9876m  627.8572m  362.1624m 
 -361.97475m   62.3607u  699.9875m  627.9570m  362.0629m 
 -361.87475m   62.7451u  699.9874m  628.0569m  361.9635m 
 -361.77475m   63.1319u  699.9873m  628.1568m  361.8640m 
 -361.67475m   63.5211u  699.9873m  628.2567m  361.7646m 
 -361.57475m   63.9127u  699.9872m  628.3566m  361.6651m 
 -361.47475m   64.3067u  699.9871m  628.4565m  361.5657m 
 -361.37475m   64.7033u  699.9870m  628.5564m  361.4663m 
 -361.27475m   65.1023u  699.9870m  628.6563m  361.3668m 
 -361.17475m   65.5038u  699.9869m  628.7562m  361.2674m 
 -361.07475m   65.9078u  699.9868m  628.8561m  361.1680m 
 -360.97475m   66.3143u  699.9867m  628.9560m  361.0685m 
 -360.87475m   66.7233u  699.9866m  629.0558m  360.9691m 
 -360.77475m   67.1350u  699.9866m  629.1557m  360.8697m 
 -360.67475m   67.5492u  699.9865m  629.2556m  360.7703m 
 -360.57475m   67.9659u  699.9864m  629.3555m  360.6709m 
 -360.47475m   68.3853u  699.9863m  629.4554m  360.5715m 
 -360.37475m   68.8073u  699.9862m  629.5553m  360.4721m 
 -360.27475m   69.2319u  699.9861m  629.6552m  360.3727m 
 -360.17475m   69.6592u  699.9861m  629.7550m  360.2733m 
 -360.07475m   70.0892u  699.9860m  629.8549m  360.1739m 
[...]
  469.52525m  700.0000m  114.0512n  469.5254m  520.4242m 
  469.62525m  700.0000m  113.4355n  469.6254m  520.3242m 
  469.72525m  700.0000m  112.8232n  469.7254m  520.2242m 
  469.82525m  700.0000m  112.2146n  469.8254m  520.1242m 
  469.92525m  700.0000m  111.6094n  469.9254m  520.0242m 
  470.02525m  700.0000m  111.0077n  470.0254m  519.9242m 
  470.12525m  700.0000m  110.4095n  470.1254m  519.8242m 
  470.22525m  700.0000m  109.8147n  470.2254m  519.7242m 
  470.32525m  700.0000m  109.2234n  470.3254m  519.6242m 
  470.42525m  700.0000m  108.6354n  470.4254m  519.5242m 
  470.52525m  700.0000m  108.0509n  470.5254m  519.4242m 
  470.62525m  700.0000m  107.4697n  470.6254m  519.3242m 
  470.72525m  700.0000m  106.8919n  470.7254m  519.2242m 
  470.82525m  700.0000m  106.3174n  470.8254m  519.1242m 
  470.92525m  700.0000m  105.7462n  470.9254m  519.0242m 
  471.02525m  700.0000m  105.1782n  471.0254m  518.9242m 
  471.12525m  700.0000m  104.6136n  471.1254m  518.8242m 
  471.22525m  700.0000m  104.0522n  471.2254m  518.7242m 
  471.32525m  700.0000m  103.4941n  471.3254m  518.6242m 
  471.42525m  700.0000m  102.9391n  471.4254m  518.5242m 
  471.52525m  700.0000m  102.3874n  471.5254m  518.4242m 
  471.62525m  700.0000m  101.8388n  471.6254m  518.3242m 
  471.72525m  700.0000m  101.2934n  471.7254m  518.2242m 
  471.82525m  700.0000m  100.7511n  471.8254m  518.1242m 
  471.92525m  700.0000m  100.2119n  471.9254m  518.0242m 
  472.02525m  700.0000m   99.6759n  472.0254m  517.9242m 
  472.12525m  700.0000m   99.1429n  472.1254m  517.8242m 
  472.22525m  700.0000m   98.6130n  472.2254m  517.7242m 
  472.32525m  700.0000m   98.0862n  472.3254m  517.6242m 
  472.42525m  700.0000m   97.5624n  472.4254m  517.5242m 
  472.52525m  700.0000m   97.0416n  472.5254m  517.4242m 
  472.62525m  700.0000m   96.5238n  472.6254m  517.3242m 
  472.72525m  700.0000m   96.0089n  472.7254m  517.2242m 
  472.82525m  700.0000m   95.4971n  472.8254m  517.1242m 
  472.92525m  700.0000m   94.9882n  472.9254m  517.0242m 
  473.02525m  700.0000m   94.4822n  473.0254m  516.9242m 
  473.12525m  700.0000m   93.9791n  473.1254m  516.8242m 
  473.22525m  700.0000m   93.4789n  473.2254m  516.7242m 
  473.32525m  700.0000m   92.9816n  473.3254m  516.6242m 
  473.42525m  700.0000m   92.4872n  473.4254m  516.5242m 
  473.52525m  700.0000m   91.9956n  473.5254m  516.4242m 
  473.62525m  700.0000m   91.5068n  473.6254m  516.3242m 
  473.72525m  700.0000m   91.0209n  473.7254m  516.2242m 
  473.82525m  700.0000m   90.5377n  473.8254m  516.1242m 
  473.92525m  700.0000m   90.0573n  473.9254m  516.0242m 
  474.02525m  700.0000m   89.5797n  474.0254m  515.9242m 
  474.12525m  700.0000m   89.1048n  474.1254m  515.8242m 
  474.22525m  700.0000m   88.6327n  474.2254m  515.7242m 
  474.32525m  700.0000m   88.1632n  474.3254m  515.6242m 
  474.42525m  700.0000m   87.6965n  474.4254m  515.5242m 
  474.52525m  700.0000m   87.2325n  474.5254m  515.4242m 
  474.62525m  700.0000m   86.7711n  474.6254m  515.3242m 
  474.72525m  700.0000m   86.3124n  474.7254m  515.2242m 
  474.82525m  700.0000m   85.8563n  474.8254m  515.1242m 
  474.92525m  700.0000m   85.4028n  474.9254m  515.0242m 
  475.02525m  700.0000m   84.9520n  475.0254m  514.9242m 
  475.12525m  700.0000m   84.5037n  475.1254m  514.8242m 
  475.22525m  700.0000m   84.0580n  475.2254m  514.7242m 
  475.32525m  700.0000m   83.6149n  475.3254m  514.6242m 
  475.42525m  700.0000m   83.1744n  475.4254m  514.5242m 
  475.52525m  700.0000m   82.7363n  475.5254m  514.4242m 
  475.62525m  700.0000m   82.3008n  475.6254m  514.3242m 
  475.72525m  700.0000m   81.8678n  475.7254m  514.2242m 
  475.82525m  700.0000m   81.4372n  475.8254m  514.1242m 
  475.92525m  700.0000m   81.0092n  475.9254m  514.0242m 
  476.02525m  700.0000m   80.5836n  476.0254m  513.9242m 
  476.12525m  700.0000m   80.1604n  476.1254m  513.8242m 
  476.22525m  700.0000m   79.7397n  476.2254m  513.7242m 
  476.32525m  700.0000m   79.3214n  476.3254m  513.6242m 
  476.42525m  700.0000m   78.9055n  476.4254m  513.5242m 
  476.52525m  700.0000m   78.4920n  476.5254m  513.4242m 
  476.62525m  700.0000m   78.0809n  476.6254m  513.3242m 
  476.72525m  700.0000m   77.6721n  476.7254m  513.2242m 
  476.82525m  700.0000m   77.2657n  476.8254m  513.1242m 
  476.92525m  700.0000m   76.8616n  476.9254m  513.0242m 
  477.02525m  700.0000m   76.4599n  477.0254m  512.9242m 
  477.12525m  700.0000m   76.0604n  477.1254m  512.8242m 
  477.22525m  700.0000m   75.6633n  477.2254m  512.7242m 
  477.32525m  700.0000m   75.2684n  477.3254m  512.6242m 
  477.42525m  700.0000m   74.8758n  477.4254m  512.5242m 
  477.52525m  700.0000m   74.4854n  477.5254m  512.4242m 
  477.62525m  700.0000m   74.0973n  477.6254m  512.3242m 
  477.72525m  700.0000m   73.7115n  477.7254m  512.2242m 
  477.82525m  700.0000m   73.3278n  477.8254m  512.1242m 
  477.92525m  700.0000m   72.9463n  477.9254m  512.0242m 
  478.02525m  700.0000m   72.5671n  478.0254m  511.9242m 
  478.12525m  700.0000m   72.1900n  478.1254m  511.8242m 
  478.22525m  700.0000m   71.8151n  478.2254m  511.7242m 
  478.32525m  700.0000m   71.4423n  478.3254m  511.6242m 
  478.42525m  700.0000m   71.0717n  478.4254m  511.5242m 
  478.52525m  700.0000m   70.7032n  478.5254m  511.4242m 
  478.62525m  700.0000m   70.3368n  478.6254m  511.3242m 
  478.72525m  700.0000m   69.9725n  478.7254m  511.2242m 
  478.82525m  700.0000m   69.6103n  478.8254m  511.1242m 
  478.92525m  700.0000m   69.2502n  478.9254m  511.0242m 
  479.02525m  700.0000m   68.8922n  479.0254m  510.9242m 
  479.12525m  700.0000m   68.5362n  479.1254m  510.8242m 
  479.22525m  700.0000m   68.1822n  479.2253m  510.7242m 
  479.32525m  700.0000m   67.8303n  479.3253m  510.6242m 
  479.42525m  700.0000m   67.4804n  479.4253m  510.5242m 
  479.52525m  700.0000m   67.1326n  479.5253m  510.4242m 
  479.62525m  700.0000m   66.7867n  479.6253m  510.3242m 
  479.72525m  700.0000m   66.4428n  479.7253m  510.2242m 
  479.82525m  700.0000m   66.1009n  479.8253m  510.1242m 
  479.92525m  700.0000m   65.7609n  479.9253m  510.0242m 
  480.02525m  700.0000m   65.4229n  480.0253m  509.9242m 
  480.12525m  700.0000m   65.0868n  480.1253m  509.8242m 
  480.22525m  700.0000m   64.7527n  480.2253m  509.7242m 
  480.32525m  700.0000m   64.4205n  480.3253m  509.6242m 
  480.42525m  700.0000m   64.0902n  480.4253m  509.5242m 
  480.52525m  700.0000m   63.7617n  480.5253m  509.4242m 
  480.62525m  700.0000m   63.4352n  480.6253m  509.3242m 
  480.72525m  700.0000m   63.1106n  480.7253m  509.2242m 
  480.82525m  700.0000m   62.7878n  480.8253m  509.1242m 
  480.92525m  700.0000m   62.4668n  480.9253m  509.0242m 
  481.02525m  700.0000m   62.1477n  481.0253m  508.9242m 
  481.12525m  700.0000m   61.8304n  481.1253m  508.8242m 
  481.22525m  700.0000m   61.5150n  481.2253m  508.7242m 
  481.32525m  700.0000m   61.2014n  481.3253m  508.6242m 
  481.42525m  700.0000m   60.8895n  481.4253m  508.5242m 
  481.52525m  700.0000m   60.5795n  481.5253m  508.4242m 
  481.62525m  700.0000m   60.2712n  481.6253m  508.3242m 
  481.72525m  700.0000m   59.9647n  481.7253m  508.2242m 
  481.82525m  700.0000m   59.6599n  481.8253m  508.1242m 
  481.92525m  700.0000m   59.3570n  481.9253m  508.0242m 
  482.02525m  700.0000m   59.0557n  482.0253m  507.9242m 
  482.12525m  700.0000m   58.7562n  482.1253m  507.8242m 
  482.22525m  700.0000m   58.4584n  482.2253m  507.7242m 
  482.32525m  700.0000m   58.1623n  482.3253m  507.6242m 
  482.42525m  700.0000m   57.8678n  482.4253m  507.5242m 
  482.52525m  700.0000m   57.5751n  482.5253m  507.4242m 
  482.62525m  700.0000m   57.2841n  482.6253m  507.3242m 
  482.72525m  700.0000m   56.9947n  482.7253m  507.2242m 
  482.82525m  700.0000m   56.7070n  482.8253m  507.1242m 
  482.92525m  700.0000m   56.4210n  482.9253m  507.0242m 
  483.02525m  700.0000m   56.1366n  483.0253m  506.9242m 
  483.12525m  700.0000m   55.8538n  483.1253m  506.8242m 
  483.22525m  700.0000m   55.5726n  483.2253m  506.7242m 
  483.32525m  700.0000m   55.2931n  483.3253m  506.6242m 
  483.42525m  700.0000m   55.0151n  483.4253m  506.5242m 
  483.52525m  700.0000m   54.7388n  483.5253m  506.4242m 
  483.62525m  700.0000m   54.4640n  483.6253m  506.3242m 
  483.72525m  700.0000m   54.1908n  483.7253m  506.2242m 
  483.82525m  700.0000m   53.9192n  483.8253m  506.1242m 
  483.92525m  700.0000m   53.6491n  483.9253m  506.0242m 
  484.02525m  700.0000m   53.3806n  484.0253m  505.9242m 
  484.12525m  700.0000m   53.1136n  484.1253m  505.8242m 
  484.22525m  700.0000m   52.8482n  484.2253m  505.7242m 
  484.32525m  700.0000m   52.5842n  484.3253m  505.6242m 
  484.42525m  700.0000m   52.3218n  484.4253m  505.5242m 
  484.52525m  700.0000m   52.0609n  484.5253m  505.4242m 
  484.62525m  700.0000m   51.8015n  484.6253m  505.3242m 
  484.72525m  700.0000m   51.5436n  484.7253m  505.2242m 
  484.82525m  700.0000m   51.2871n  484.8253m  505.1242m 
  484.92525m  700.0000m   51.0321n  484.9253m  505.0242m 
  485.02525m  700.0000m   50.7786n  485.0253m  504.9242m 
  485.12525m  700.0000m   50.5266n  485.1253m  504.8242m 
  485.22525m  700.0000m   50.2760n  485.2253m  504.7242m 
  485.32525m  700.0000m   50.0268n  485.3253m  504.6242m 
  485.42525m  700.0000m   49.7790n  485.4253m  504.5242m 
  485.52525m  700.0000m   49.5327n  485.5253m  504.4242m 
  485.62525m  700.0000m   49.2878n  485.6253m  504.3242m 
  485.72525m  700.0000m   49.0443n  485.7253m  504.2242m 
  485.82525m  700.0000m   48.8021n  485.8253m  504.1242m 
  485.92525m  700.0000m   48.5614n  485.9253m  504.0242m 
  486.02525m  700.0000m   48.3221n  486.0253m  503.9242m 
  486.12525m  700.0000m   48.0841n  486.1253m  503.8242m 
  486.22525m  700.0000m   47.8475n  486.2253m  503.7242m 
  486.32525m  700.0000m   47.6122n  486.3253m  503.6242m 
  486.42525m  700.0000m   47.3783n  486.4253m  503.5242m 
  486.52525m  700.0000m   47.1457n  486.5253m  503.4242m 
  486.62525m  700.0000m   46.9145n  486.6253m  503.3242m 
  486.72525m  700.0000m   46.6846n  486.7253m  503.2242m 
  486.82525m  700.0000m   46.4560n  486.8253m  503.1242m 
  486.92525m  700.0000m   46.2287n  486.9253m  503.0242m 
  487.02525m  700.0000m   46.0027n  487.0253m  502.9242m 
  487.12525m  700.0000m   45.7780n  487.1253m  502.8242m 
  487.22525m  700.0000m   45.5546n  487.2253m  502.7242m 
  487.32525m  700.0000m   45.3325n  487.3253m  502.6242m 
  487.42525m  700.0000m   45.1116n  487.4253m  502.5242m 
  487.52525m  700.0000m   44.8921n  487.5253m  502.4242m 
  487.62525m  700.0000m   44.6737n  487.6253m  502.3242m 
  487.72525m  700.0000m   44.4567n  487.7253m  502.2242m 
  487.82525m  700.0000m   44.2408n  487.8253m  502.1242m 
  487.92525m  700.0000m   44.0262n  487.9253m  502.0242m 
  488.02525m  700.0000m   43.8129n  488.0253m  501.9242m 
  488.12525m  700.0000m   43.6007n  488.1253m  501.8242m 
  488.22525m  700.0000m   43.3898n  488.2253m  501.7242m 
  488.32525m  700.0000m   43.1801n  488.3253m  501.6242m 
  488.42525m  700.0000m   42.9716n  488.4253m  501.5242m 
  488.52525m  700.0000m   42.7643n  488.5253m  501.4242m 
  488.62525m  700.0000m   42.5581n  488.6253m  501.3242m 
  488.72525m  700.0000m   42.3532n  488.7253m  501.2242m 
  488.82525m  700.0000m   42.1494n  488.8253m  501.1242m 
  488.92525m  700.0000m   41.9468n  488.9253m  501.0242m 
  489.02525m  700.0000m   41.7453n  489.0253m  500.9242m 
  489.12525m  700.0000m   41.5450n  489.1253m  500.8242m 
  489.22525m  700.0000m   41.3459n  489.2253m  500.7242m 
  489.32525m  700.0000m   41.1479n  489.3253m  500.6242m 
  489.42525m  700.0000m   40.9510n  489.4253m  500.5242m 
  489.52525m  700.0000m   40.7553n  489.5253m  500.4242m 
  489.62525m  700.0000m   40.5606n  489.6253m  500.3242m 
  489.72525m  700.0000m   40.3671n  489.7253m  500.2242m 
  489.82525m  700.0000m   40.1747n  489.8253m  500.1242m 
  489.92525m  700.0000m   39.9834n  489.9253m  500.0242m 
  490.02525m  700.0000m   39.7932n  490.0253m  499.9242m 
  490.12525m  700.0000m   39.6041n  490.1253m  499.8242m 
  490.22525m  700.0000m   39.4161n  490.2253m  499.7242m 
  490.32525m  700.0000m   39.2291n  490.3253m  499.6242m 
  490.42525m  700.0000m   39.0433n  490.4253m  499.5242m 
  490.52525m  700.0000m   38.8584n  490.5253m  499.4242m 
  490.62525m  700.0000m   38.6747n  490.6253m  499.3242m 
  490.72525m  700.0000m   38.4920n  490.7253m  499.2242m 
  490.82525m  700.0000m   38.3103n  490.8253m  499.1242m 
  490.92525m  700.0000m   38.1297n  490.9253m  499.0242m 
  491.02525m  700.0000m   37.9501n  491.0253m  498.9242m 
  491.12525m  700.0000m   37.7716n  491.1253m  498.8242m 
  491.22525m  700.0000m   37.5940n  491.2253m  498.7242m 
  491.32525m  700.0000m   37.4175n  491.3253m  498.6242m 
  491.42525m  700.0000m   37.2420n  491.4253m  498.5242m 
  491.52525m  700.0000m   37.0675n  491.5253m  498.4242m 
  491.62525m  700.0000m   36.8940n  491.6253m  498.3242m 
  491.72525m  700.0000m   36.7215n  491.7253m  498.2242m 
  491.82525m  700.0000m   36.5500n  491.8253m  498.1242m 
  491.92525m  700.0000m   36.3794n  491.9253m  498.0242m 
  492.02525m  700.0000m   36.2099n  492.0253m  497.9242m 
  492.12525m  700.0000m   36.0413n  492.1253m  497.8242m 
  492.22525m  700.0000m   35.8737n  492.2253m  497.7242m 
  492.32525m  700.0000m   35.7070n  492.3253m  497.6242m 
  492.42525m  700.0000m   35.5413n  492.4253m  497.5242m 
  492.52525m  700.0000m   35.3765n  492.5253m  497.4242m 
  492.62525m  700.0000m   35.2127n  492.6253m  497.3242m 
  492.72525m  700.0000m   35.0498n  492.7253m  497.2242m 
  492.82525m  700.0000m   34.8879n  492.8253m  497.1242m 
  492.92525m  700.0000m   34.7269n  492.9253m  497.0242m 
  493.02525m  700.0000m   34.5668n  493.0253m  496.9242m 
  493.12525m  700.0000m   34.4076n  493.1253m  496.8242m 
  493.22525m  700.0000m   34.2493n  493.2253m  496.7242m 
  493.32525m  700.0000m   34.0919n  493.3253m  496.6242m 
  493.42525m  700.0000m   33.9355n  493.4253m  496.5242m 
  493.52525m  700.0000m   33.7799n  493.5253m  496.4242m 
  493.62525m  700.0000m   33.6252n  493.6253m  496.3242m 
  493.72525m  700.0000m   33.4715n  493.7253m  496.2242m 
  493.82525m  700.0000m   33.3185n  493.8253m  496.1242m 
  493.92525m  700.0000m   33.1665n  493.9253m  496.0242m 
  494.02525m  700.0000m   33.0154n  494.0253m  495.9242m 
  494.12525m  700.0000m   32.8651n  494.1253m  495.8242m 
  494.22525m  700.0000m   32.7156n  494.2253m  495.7242m 
  494.32525m  700.0000m   32.5670n  494.3253m  495.6242m 
  494.42525m  700.0000m   32.4193n  494.4253m  495.5242m 
  494.52525m  700.0000m   32.2724n  494.5253m  495.4242m 
  494.62525m  700.0000m   32.1264n  494.6253m  495.3242m 
  494.72525m  700.0000m   31.9812n  494.7253m  495.2242m 
  494.82525m  700.0000m   31.8368n  494.8253m  495.1242m 
  494.92525m  700.0000m   31.6933n  494.9253m  495.0242m 
y
 max_1= 431.6740m    at=-253.0747m
             from=-494.9747m    to= 494.9253m
 max_2= 431.6740m    at= 253.1253m
             from=-494.9747m    to= 494.9253m
 snm= 305.2396m
1****** HSPICE -- Q-2020.03-SP2-2 linux64 (Nov  1 2020) ******                  
 ******  
 .title noise margin in hold operation

 ****** operating point information tnom=  25.000 temp=  25.000 ******
 ****** operating point status is all       simulation time is     0.     
    node    =voltage      node    =voltage      node    =voltage

 +0:bl      = 700.0000m 0:blb     = 700.0000m 0:gl      = 369.3009m
 +0:gr      = 369.3009m 0:q       = 369.3009m 0:qb      = 369.3009m
 +0:u       =   0.      0:v1      = 522.2703m 0:v2      = 522.2703m
 +0:vdd     = 700.0000m 0:wl      =   0.      0:x       = 658.1762m


 **** voltage sources

 subckt                                   
 element  0:vu       0:vvdd     0:vwl     
  volts      0.       700.0000m    0.     
  current    0.      -998.3374n  305.0209f
  power      0.       698.8361n    0.     

     total voltage source power dissipation=  698.8361n       watts



 **** voltage-controlled voltage sources


 subckt                                              
 element  0:eli      0:ev1      0:eri      0:ev2     
  volts    369.3009m  522.2703m  369.3009m  522.2703m
  current   16.1798f    0.        16.1798f    0.     





 **** mosfets


 subckt                                                                    
 element  0:mpr      0:mnr      0:mpl      0:mnl      0:mnpr     0:mnpl    
 model    0:pmos_sra 0:nmos_sra 0:pmos_sra 0:nmos_sra 0:nmos_sra 0:nmos_sra
 region   Subth      Subth      Subth      Subth      Cutoff     Cutoff    
  id      -499.1686n  499.1686n -499.1686n  499.1686n  938.2452a  938.2452a
  ibs        0.         0.         0.         0.         0.         0.     
  ibd        0.         0.         0.         0.         0.         0.     
  vgs     -330.6991m  369.3009m -330.6991m  369.3009m -369.3009m -369.3009m
  vds     -330.6991m  369.3009m -330.6991m  369.3009m  330.6991m  330.6991m
  vbs      -41.8238m  658.1762m  -41.8238m  658.1762m  288.8753m  288.8753m
  vth     -334.7549m  408.4973m -334.7549m  408.4973m  408.7099m  408.7099m
  vdsat    -95.5226m   79.1197m  -95.5226m   79.1197m   70.6690m   70.6690m
  vod        4.0558m  -39.1964m    4.0558m  -39.1964m -778.0108m -778.0108m
  beta       1.6413m    2.1736m    1.6413m    2.1736m    2.1736m    2.1736m
  gam eff    0.         0.         0.         0.         0.         0.     
  gm        12.9907u   15.3998u   12.9907u   15.3998u  8.590e-21  8.590e-21
  gds      301.4608n  239.6269n  301.4608n  239.6269n  228.2566a  228.2566a
  gmb        4.8922p   12.0124p    4.8922p   12.0124p  1.316e-20  1.316e-20
  cdtot     10.1750a   10.2205a   10.1750a   10.2205a   10.2225a   10.2225a
  cgtot     31.2784a   26.1428a   31.2784a   26.1428a   20.4450a   20.4450a
  cstot     17.2863a   14.0661a   17.2863a   14.0661a   10.2225a   10.2225a
  cbtot      0.         0.         0.         0.         0.         0.     
  cgs       21.2138a   15.9421a   21.2138a   15.9421a   10.2225a   10.2225a
  cgd       10.0646a   10.2007a   10.0646a   10.2007a   10.2225a   10.2225a




          ***** job concluded
 ******  
 .title noise margin in hold operation

 ****** job statistics summary tnom=  25.000 temp=  25.000 ******
  
 ******  Machine Information  ******
 CPU:
 model name	: AMD EPYC 7713 64-Core Processor
 cpu MHz	: 2000.000
  
 OS:
 Linux version 3.10.0-1160.88.1.el7.x86_64 (mockbuild@kbuilder.bsys.centos.org) (gcc version 4.8.5 20150623 (Red Hat 4.8.5-44) (GCC) ) #1 SMP Tue Mar 7 15:41:52 UTC 2023


  ******  HSPICE Threads Information  ******

  Command Line Threads Count :     1
  Available CPU Count        :   256
  Actual Threads Count       :     1


  ******  Circuit Statistics  ******
  # nodes       =      13 # elements   =      15
  # resistors   =       0 # capacitors =       2 # inductors   =       0
  # mutual_inds =       0 # vccs       =       0 # vcvs        =       4
  # cccs        =       0 # ccvs       =       0 # volt_srcs   =       3
  # curr_srcs   =       0 # diodes     =       0 # bjts        =       0
  # jfets       =       0 # mosfets    =       6 # U elements  =       0
  # T elements  =       0 # W elements =       0 # B elements  =       0
  # S elements  =       0 # P elements =       0 # va device   =       0
  # vector_srcs =       0 # N elements =       0


  ******  Runtime Statistics (seconds)  ******

  analysis           time    # points   tot. iter  conv.iter
  op point           0.01           1          10
  dc sweep           0.77        9900       29712
  readin             0.02
  errchk             0.00
  setup              0.00
  output             0.00


           peak memory used        406.02 megabytes
           total cpu time            0.86 seconds
           total elapsed time        1.15 seconds
           job started at     19:36:50 03/20/2025
           job ended   at     19:36:51 03/20/2025
           job total runtime         1.15 seconds


 lic: Release hspice token(s) 
 lic: total license checkout elapse time:        0.28(s)
